@<TRIPOS>MOLECULE
?
 42 45 0 0 0
SMALL
GASTEIGER

@<TRIPOS>ATOM
      1 N           1.0288    4.8848    2.9701 N.pl3   1  LIG1       -0.3137
      2 C           0.5821    4.0097    1.8837 C.3     1  LIG1        0.0606
      3 H           0.0232    4.5423    1.2475 H       1  LIG1        0.0557
      4 C          -0.3305    2.9903    2.6245 C.3     1  LIG1        0.0979
      5 C          -1.0079    3.8894    3.6809 C.3     1  LIG1       -0.0038
      6 H          -1.2664    3.3604    4.4766 H       1  LIG1        0.0302
      7 H          -1.8173    4.3191    3.3066 H       1  LIG1        0.0302
      8 C           0.0533    4.9526    4.0525 C.3     1  LIG1        0.1223
      9 H           0.4947    4.6916    4.9106 H       1  LIG1        0.0616
     10 C           2.2599    5.3986    3.0519 C.2     1  LIG1        0.0108
     11 H           2.4465    6.0520    3.7154 H       1  LIG1        0.0793
     12 C           3.2560    5.0061    2.2032 C.2     1  LIG1        0.0652
     13 C           2.9828    3.9123    1.2772 C.2     1  LIG1       -0.0453
     14 H           3.6925    3.5383    0.7683 H       1  LIG1        0.0628
     15 C           1.7475    3.4324    1.1393 C.2     1  LIG1       -0.0613
     16 H           1.6007    2.7009    0.5508 H       1  LIG1        0.0591
     17 C           4.5441    5.5933    2.3246 C.1     1  LIG1        0.1004
     18 N           5.5909    6.0664    2.4196 N.1     1  LIG1       -0.1908
     19 C           0.5282    1.8911    3.2757 C.2     1  LIG1        0.2300
     20 O           1.3715    2.0560    4.1449 O.2     1  LIG1       -0.2744
     21 N           0.1807    0.7031    2.7130 N.am    1  LIG1       -0.2844
     22 H           0.5577   -0.0667    2.9119 H       1  LIG1        0.1548
     23 C          -0.8515    0.8543    1.7770 C.ar    1  LIG1        0.0377
     24 C          -1.4702   -0.1218    1.0226 C.ar    1  LIG1       -0.0402
     25 H          -1.2243   -1.0361    1.0995 H       1  LIG1        0.0636
     26 C          -2.4702    0.2883    0.1435 C.ar    1  LIG1       -0.0600
     27 H          -2.9116   -0.3588   -0.3947 H       1  LIG1        0.0618
     28 C          -2.8350    1.6263    0.0381 C.ar    1  LIG1       -0.0614
     29 H          -3.5156    1.8817   -0.5729 H       1  LIG1        0.0618
     30 C          -2.2092    2.5968    0.8224 C.ar    1  LIG1       -0.0557
     31 H          -2.4628    3.5104    0.7572 H       1  LIG1        0.0621
     32 C          -1.2124    2.2018    1.6974 C.ar    1  LIG1       -0.0091
     33 C          -0.5288    6.3504    4.1941 C.2     1  LIG1        0.3278
     34 O          -0.2384    7.2857    3.4946 O.2     1  LIG1       -0.2487
     35 O          -1.3794    6.3723    5.2161 O.3     1  LIG1       -0.4636
     36 C          -1.9925    7.6594    5.5254 C.3     1  LIG1        0.0897
     37 H          -2.8490    7.5107    5.9981 H       1  LIG1        0.0694
     38 H          -2.1867    8.1424    4.6831 H       1  LIG1        0.0694
     39 C          -1.0869    8.4968    6.3836 C.3     1  LIG1       -0.0306
     40 H          -0.8222    7.9845    7.1761 H       1  LIG1        0.0262
     41 H          -1.5598    9.3090    6.6626 H       1  LIG1        0.0262
     42 H          -0.2879    8.7429    5.8722 H       1  LIG1        0.0262
@<TRIPOS>BOND
     1    29    28    1
     2    27    26    1
     3    28    26   ar
     4    28    30   ar
     5    26    24   ar
     6    16    15    1
     7    31    30    1
     8    14    13    1
     9    30    32   ar
    10    24    25    1
    11    24    23   ar
    12    15    13    2
    13    15     2    1
    14     3     2    1
    15    13    12    1
    16    32    23   ar
    17    32     4    1
    18    23    21    1
    19     2     4    1
    20     2     1    1
    21    12    17    1
    22    12    10    2
    23    17    18    3
    24     4    19    1
    25     4     5    1
    26    21    22    1
    27    21    19   am
    28     1    10    1
    29     1     8    1
    30    10    11    1
    31    19    20    2
    32     7     5    1
    33    34    33    2
    34     5     8    1
    35     5     6    1
    36     8    33    1
    37     8     9    1
    38    33    35    1
    39    38    36    1
    40    35    36    1
    41    36    37    1
    42    36    39    1
    43    42    39    1
    44    39    41    1
    45    39    40    1
