@<TRIPOS>MOLECULE
?
 49 53 0 0 0
SMALL
GASTEIGER

@<TRIPOS>ATOM
      1 C           4.1626    5.1522    5.7023 C.ar    1  LIG1       -0.0245
      2 C           3.0803    4.4367    6.1528 C.ar    1  LIG1       -0.0469
      3 H           2.9353    3.5617    5.8120 H       1  LIG1        0.0629
      4 C           2.1673    4.9638    7.1133 C.ar    1  LIG1       -0.0173
      5 C           1.0448    4.2339    7.5634 C.ar    1  LIG1       -0.0540
      6 H           0.8918    3.3561    7.2337 H       1  LIG1        0.0624
      7 C           0.1773    4.7776    8.4683 C.ar    1  LIG1       -0.0612
      8 H          -0.5733    4.2750    8.7632 H       1  LIG1        0.0618
      9 C           0.3892    6.0838    8.9675 C.ar    1  LIG1       -0.0612
     10 H          -0.2241    6.4590    9.5879 H       1  LIG1        0.0618
     11 C           1.4668    6.8043    8.5613 C.ar    1  LIG1       -0.0540
     12 H           1.6003    7.6799    8.9051 H       1  LIG1        0.0624
     13 C           2.4011    6.2649    7.6275 C.ar    1  LIG1       -0.0178
     14 C           3.5517    6.9656    7.2088 C.ar    1  LIG1       -0.0535
     15 H           3.7348    7.8228    7.5739 H       1  LIG1        0.0624
     16 C           4.4075    6.4311    6.2855 C.ar    1  LIG1       -0.0540
     17 H           5.1802    6.9202    6.0273 H       1  LIG1        0.0624
     18 C           5.0470    4.5751    4.6694 C.2     1  LIG1       -0.0545
     19 H           5.1122    3.6280    4.6545 H       1  LIG1        0.0623
     20 C           7.2571    5.7921    1.9788 C.3     1  LIG1       -0.0299
     21 H           7.6429    5.5924    1.0792 H       1  LIG1        0.0310
     22 C           6.0547    6.7383    1.9599 C.3     1  LIG1       -0.0428
     23 H           5.2806    6.3661    1.4683 H       1  LIG1        0.0274
     24 H           6.2796    7.6381    1.6151 H       1  LIG1        0.0274
     25 C           5.8570    6.7167    3.4886 C.3     1  LIG1       -0.0187
     26 H           5.0881    7.2606    3.8273 H       1  LIG1        0.0346
     27 C           5.7622    5.2268    3.7564 C.2     1  LIG1       -0.0582
     28 C           6.6693    4.5546    2.7188 C.3     1  LIG1        0.0086
     29 H           7.4072    4.0717    3.1911 H       1  LIG1        0.0397
     30 C           7.2561    7.1796    3.9705 C.3     1  LIG1       -0.0462
     31 H           7.4442    6.8563    4.8869 H       1  LIG1        0.0271
     32 H           7.3322    8.1667    3.9521 H       1  LIG1        0.0271
     33 C           8.2134    6.5241    2.9371 C.3     1  LIG1       -0.0488
     34 H           8.7431    7.2094    2.4569 H       1  LIG1        0.0268
     35 H           8.8319    5.8886    3.3771 H       1  LIG1        0.0268
     36 C           5.9892    3.6055    1.7536 C.ar    1  LIG1       -0.0400
     37 C           6.7449    2.5964    1.1536 C.ar    1  LIG1       -0.0577
     38 H           7.6401    2.4558    1.4389 H       1  LIG1        0.0621
     39 C           6.2181    1.7914    0.1476 C.ar    1  LIG1       -0.0586
     40 H           6.7626    1.1234   -0.2521 H       1  LIG1        0.0620
     41 C           4.9052    1.9526   -0.2800 C.ar    1  LIG1       -0.0504
     42 C           4.1430    2.9359    0.3404 C.ar    1  LIG1       -0.0586
     43 H           3.2409    3.0611    0.0685 H       1  LIG1        0.0620
     44 C           4.6609    3.7388    1.3432 C.ar    1  LIG1       -0.0577
     45 H           4.1056    4.3889    1.7570 H       1  LIG1        0.0621
     46 C           4.3288    1.1106   -1.3875 C.3     1  LIG1       -0.0397
     47 H           3.6603    0.4972   -1.0180 H       1  LIG1        0.0278
     48 H           5.0460    0.5948   -1.8133 H       1  LIG1        0.0278
     49 H           3.9056    1.6914   -2.0531 H       1  LIG1        0.0278
@<TRIPOS>BOND
     1    49    46    1
     2    48    46    1
     3    46    47    1
     4    46    41    1
     5    41    39   ar
     6    41    42   ar
     7    40    39    1
     8    43    42    1
     9    39    37   ar
    10    42    44   ar
    11    21    20    1
    12    37    38    1
    13    37    36   ar
    14    44    36   ar
    15    44    45    1
    16    23    22    1
    17    24    22    1
    18    36    28    1
    19    22    20    1
    20    22    25    1
    21    20    28    1
    22    20    33    1
    23    34    33    1
    24    28    29    1
    25    28    27    1
    26    33    35    1
    27    33    30    1
    28    25    27    1
    29    25    26    1
    30    25    30    1
    31    27    18    2
    32    32    30    1
    33    30    31    1
    34    19    18    1
    35    18     1    1
    36     1     2   ar
    37     1    16   ar
    38     3     2    1
    39    17    16    1
    40     2     4   ar
    41    16    14   ar
    42     4     5   ar
    43     4    13   ar
    44    14    15    1
    45    14    13   ar
    46     6     5    1
    47     5     7   ar
    48    13    11   ar
    49     7     8    1
    50     7     9   ar
    51    11    12    1
    52    11     9   ar
    53     9    10    1
