@<TRIPOS>MOLECULE
?
 57 57 0 0 0
SMALL
GASTEIGER

@<TRIPOS>ATOM
      1 O           4.1988    2.7053    2.5937 O.3     1  LIG1       -0.4577
      2 O           2.1698    5.7921    0.4960 O.3     1  LIG1       -0.3842
      3 H           1.9612    6.0037    1.2828 H       1  LIG1        0.2101
      4 O           1.9598    2.7388   -1.4479 O.3     1  LIG1       -0.4569
      5 O           1.5605    3.5009    2.4797 O.3     1  LIG1       -0.4550
      6 O           4.6367    4.4633   -4.9440 O.3     1  LIG1       -0.4447
      7 C           2.2351    4.1388   -1.1666 C.3     1  LIG1        0.1506
      8 H           1.6842    4.7045   -1.7824 H       1  LIG1        0.0780
      9 O          -0.1503    3.2404   -2.0418 O.2     1  LIG1       -0.2512
     10 N           3.9615    4.0279   -2.8994 N.am    1  LIG1       -0.2746
     11 H           4.0179    3.1855   -3.1466 H       1  LIG1        0.1524
     12 O           3.8379    6.1604   -3.6508 O.2     1  LIG1       -0.2265
     13 O           0.2191    2.0155    1.4675 O.2     1  LIG1       -0.2512
     14 O           5.3702    4.0004    3.9966 O.2     1  LIG1       -0.2512
     15 C           1.8250    4.4338    0.2644 C.3     1  LIG1        0.1340
     16 H           0.8296    4.3565    0.3200 H       1  LIG1        0.0670
     17 C           2.4245    3.4978    1.3022 C.3     1  LIG1        0.1688
     18 H           2.4683    2.5720    0.9263 H       1  LIG1        0.0799
     19 C           3.7831    3.8834    1.8341 C.3     1  LIG1        0.1424
     20 H           3.6876    4.6607    2.4561 H       1  LIG1        0.0772
     21 C           3.7064    4.3443   -1.4981 C.3     1  LIG1        0.0659
     22 H           3.8973    5.3179   -1.3810 H       1  LIG1        0.0537
     23 C           4.9867    2.9067    3.6634 C.2     1  LIG1        0.3043
     24 C           4.1149    4.9924   -3.8170 C.2     1  LIG1        0.4011
     25 C           0.6010    0.9645   -2.1165 C.3     1  LIG1        0.0332
     26 H           1.4556    0.5290   -1.9116 H       1  LIG1        0.0342
     27 H           0.3678    0.8017   -3.0540 H       1  LIG1        0.0342
     28 H          -0.0986    0.5972   -1.5354 H       1  LIG1        0.0342
     29 C           4.8537    5.2834   -6.1496 C.3     1  LIG1        0.1068
     30 C           4.8271    4.2100    0.7759 C.3     1  LIG1       -0.0102
     31 H           4.8443    5.1938    0.6625 H       1  LIG1        0.0303
     32 H           5.7098    3.9424    1.1312 H       1  LIG1        0.0303
     33 C           4.6753    3.5904   -0.6018 C.3     1  LIG1       -0.0274
     34 H           4.3591    2.6574   -0.4996 H       1  LIG1        0.0285
     35 H           5.5627    3.5629   -1.0414 H       1  LIG1        0.0285
     36 C           0.4821    2.6829    2.4286 C.2     1  LIG1        0.3044
     37 C           0.7216    2.4255   -1.8818 C.2     1  LIG1        0.3043
     38 C           5.3154    1.6309    4.3466 C.3     1  LIG1        0.0332
     39 H           4.8709    0.8892    3.8849 H       1  LIG1        0.0342
     40 H           5.0071    1.6685    5.2772 H       1  LIG1        0.0342
     41 H           6.2858    1.4915    4.3312 H       1  LIG1        0.0342
     42 C           5.4798    4.3026   -7.1090 C.3     1  LIG1       -0.0253
     43 H           6.3469    4.0106   -6.7593 H       1  LIG1        0.0268
     44 H           5.6097    4.7350   -7.9803 H       1  LIG1        0.0268
     45 H           4.8913    3.5263   -7.2140 H       1  LIG1        0.0268
     46 C          -0.3130    2.7541    3.6878 C.3     1  LIG1        0.0332
     47 H           0.1252    3.3656    4.3172 H       1  LIG1        0.0342
     48 H          -0.3710    1.8618    4.0870 H       1  LIG1        0.0342
     49 H          -1.2146    3.0817    3.4863 H       1  LIG1        0.0342
     50 C           3.5092    5.7575   -6.6517 C.3     1  LIG1       -0.0253
     51 H           2.9348    4.9832   -6.8266 H       1  LIG1        0.0268
     52 H           3.6297    6.2692   -7.4778 H       1  LIG1        0.0268
     53 H           3.0897    6.3282   -5.9733 H       1  LIG1        0.0268
     54 C           5.7975    6.4300   -5.8478 C.3     1  LIG1       -0.0253
     55 H           6.6521    6.0739   -5.5242 H       1  LIG1        0.0268
     56 H           5.4031    7.0058   -5.1593 H       1  LIG1        0.0268
     57 H           5.9493    6.9519   -6.6638 H       1  LIG1        0.0268
@<TRIPOS>BOND
     1    44    42    1
     2    52    50    1
     3    45    42    1
     4    42    43    1
     5    42    29    1
     6    51    50    1
     7    57    54    1
     8    50    29    1
     9    50    53    1
    10    29    54    1
    11    29     6    1
    12    54    55    1
    13    54    56    1
    14     6    24    1
    15    24    12    2
    16    24    10   am
    17    11    10    1
    18    27    25    1
    19    10    21    1
    20    25    26    1
    21    25    37    1
    22    25    28    1
    23     9    37    2
    24    37     4    1
    25     8     7    1
    26    21    22    1
    27    21     7    1
    28    21    33    1
    29     4     7    1
    30     7    15    1
    31    35    33    1
    32    33    34    1
    33    33    30    1
    34    15    16    1
    35    15     2    1
    36    15    17    1
    37     2     3    1
    38    31    30    1
    39    30    32    1
    40    30    19    1
    41    18    17    1
    42    17    19    1
    43    17     5    1
    44    13    36    2
    45    19    20    1
    46    19     1    1
    47    36     5    1
    48    36    46    1
    49     1    23    1
    50    49    46    1
    51    23    14    2
    52    23    38    1
    53    46    48    1
    54    46    47    1
    55    39    38    1
    56    41    38    1
    57    38    40    1
