@<TRIPOS>MOLECULE
1-96
 36 36 0 0 0
SMALL
GASTEIGER

@<TRIPOS>ATOM
      1 O           0.7199   10.0579    1.2034 O.3     1  LIG1       -0.4446
      2 C           1.6887    9.2838    0.6494 C.2     1  LIG1        0.4012
      3 O           1.4181    8.1905    0.1870 O.2     1  LIG1       -0.2265
      4 N           2.8641    9.9174    0.7077 N.am    1  LIG1       -0.2711
      5 C           2.8031   11.0861    1.5814 C.3     1  LIG1        0.0845
      6 C           1.2934   11.3696    1.4865 C.3     1  LIG1        0.1290
      7 C           0.6000   11.9934    2.6856 C.3     1  LIG1       -0.0073
      8 C          -0.9131   11.9190    2.5361 C.3     1  LIG1       -0.0592
      9 C           1.0482   13.4476    2.8204 C.3     1  LIG1       -0.0592
     10 C           3.3471   10.8108    2.9812 C.2     1  LIG1       -0.0530
     11 C           3.0191    9.4725    3.5975 C.3     1  LIG1       -0.0301
     12 C           3.3331    9.3149    5.0740 C.3     1  LIG1       -0.0496
     13 C           3.1898    7.8986    5.5763 C.3     1  LIG1       -0.0556
     14 C           3.4710    7.7466    7.0586 C.3     1  LIG1       -0.0653
     15 C           4.1020   11.7236    3.5626 C.2     1  LIG1       -0.0976
     16 H           3.2619   11.8215    1.1901 H       1  LIG1        0.0583
     17 H           1.1476   11.9366    0.6956 H       1  LIG1        0.0759
     18 H           0.8703   11.4955    3.5069 H       1  LIG1        0.0332
     19 H          -1.3163   12.3236    3.2954 H       1  LIG1        0.0233
     20 H          -1.1764   12.4146    1.7535 H       1  LIG1        0.0233
     21 H          -1.1888   10.9957    2.5099 H       1  LIG1        0.0233
     22 H           0.6761   13.8048    3.6312 H       1  LIG1        0.0233
     23 H           0.7491   13.9637    2.0497 H       1  LIG1        0.0233
     24 H           2.0194   13.5018    2.8577 H       1  LIG1        0.0233
     25 H           2.0714    9.2980    3.4554 H       1  LIG1        0.0311
     26 H           3.5190    8.7705    3.0758 H       1  LIG1        0.0311
     27 H           4.2525    9.5733    5.2181 H       1  LIG1        0.0268
     28 H           2.7847    9.8934    5.5976 H       1  LIG1        0.0268
     29 H           3.8545    7.3089    5.1057 H       1  LIG1        0.0263
     30 H           2.2852    7.5704    5.3913 H       1  LIG1        0.0263
     31 H           3.3000    6.8275    7.3537 H       1  LIG1        0.0230
     32 H           4.4190    7.9781    7.2069 H       1  LIG1        0.0230
     33 H           2.9294    8.3801    7.5494 H       1  LIG1        0.0230
     34 H           4.2884   12.5275    3.0917 H       1  LIG1        0.0535
     35 H           4.4204   11.6003    4.4181 H       1  LIG1        0.0535
     36 H           3.6280    9.5502    0.4271 H       1  LIG1        0.1527
@<TRIPOS>BOND
     1     3     2    2
     2    36     4    1
     3     2     4   am
     4     2     1    1
     5    17     6    1
     6     4     5    1
     7    16     5    1
     8     1     6    1
     9     6     5    1
    10     6     7    1
    11     5    10    1
    12    20     8    1
    13    23     9    1
    14    21     8    1
    15     8     7    1
    16     8    19    1
    17     7     9    1
    18     7    18    1
    19     9    24    1
    20     9    22    1
    21    10    15    2
    22    10    11    1
    23    26    11    1
    24    34    15    1
    25    25    11    1
    26    15    35    1
    27    11    12    1
    28    12    27    1
    29    12    13    1
    30    12    28    1
    31    29    13    1
    32    30    13    1
    33    13    14    1
    34    14    32    1
    35    14    31    1
    36    14    33    1
