@<TRIPOS>MOLECULE
N-Acetoxy-2,6-dichloro-benzamide
 22 22 0 0 0
SMALL
GASTEIGER

@<TRIPOS>ATOM
      1 CL          8.7440   12.4669    1.4301 Cl      1  LIG1       -0.0827
      2 CL          5.2048    8.7500   -0.1640 Cl      1  LIG1       -0.0827
      3 C           5.5600   10.2184    0.6978 C.ar    1  LIG1        0.0546
      4 C           6.8685   10.6667    0.7223 C.ar    1  LIG1        0.0760
      5 C           7.1252   11.8528    1.4012 C.ar    1  LIG1        0.0546
      6 C           6.1154   12.5641    2.0189 C.ar    1  LIG1       -0.0426
      7 H           6.3048   13.3554    2.4693 H       1  LIG1        0.0632
      8 C           4.8249   12.0857    1.9582 C.ar    1  LIG1       -0.0590
      9 H           4.1418   12.5649    2.3673 H       1  LIG1        0.0618
     10 C           4.5284   10.9112    1.3042 C.ar    1  LIG1       -0.0426
     11 H           3.6554   10.5912    1.2712 H       1  LIG1        0.0632
     12 C           7.9192    9.9517   -0.0859 C.2     1  LIG1        0.2785
     13 O           8.1047   10.2169   -1.2658 O.2     1  LIG1       -0.2672
     14 N           8.5701    9.0202    0.5924 N.am    1  LIG1       -0.1406
     15 O           9.3787    8.1347   -0.1328 O.3     1  LIG1       -0.3475
     16 C          10.7320    8.3328    0.0576 C.2     1  LIG1        0.3276
     17 O          11.1630    9.1590    0.7788 O.2     1  LIG1       -0.2490
     18 C          11.4738    7.3401   -0.7609 C.3     1  LIG1        0.0353
     19 H          12.4125    7.5372   -0.7301 H       1  LIG1        0.0342
     20 H          11.1671    7.3821   -1.6697 H       1  LIG1        0.0342
     21 H          11.3209    6.4595   -0.4108 H       1  LIG1        0.0342
     22 H           8.3845    8.7848    1.3459 H       1  LIG1        0.1962
@<TRIPOS>BOND
     1    20    18    1
     2    13    12    2
     3    18    19    1
     4    18    21    1
     5    18    16    1
     6     2     3    1
     7    15    16    1
     8    15    14    1
     9    12    14   am
    10    12     4    1
    11    16    17    2
    12    14    22    1
    13     3     4   ar
    14     3    10   ar
    15     4     5   ar
    16    11    10    1
    17    10     8   ar
    18     5     1    1
    19     5     6   ar
    20     8     6   ar
    21     8     9    1
    22     6     7    1
