@<TRIPOS>MOLECULE
(1R,3aS,6R,6aR)-1-(2-bromophenyl)-6-phenyl-hexahydrofuro[3,4-c]furan
 38 41 0 0 0
SMALL
GASTEIGER

@<TRIPOS>ATOM
      1 BR          1.4323    1.7216   14.7997 Br      1  LIG1       -0.0499
      2 C          -0.5311    3.9346   13.6722 C.3     1  LIG1        0.0905
      3 H          -0.5973    3.7463   14.6318 H       1  LIG1        0.0650
      4 C          -1.4107    6.0326   13.7929 C.3     1  LIG1        0.0538
      5 H          -1.7084    6.0976   14.7129 H       1  LIG1        0.0564
      6 H          -1.8851    6.6957   13.2666 H       1  LIG1        0.0564
      7 C           0.0912    6.2634   13.7046 C.3     1  LIG1        0.0141
      8 H           0.4418    6.6341   14.5408 H       1  LIG1        0.0350
      9 C           0.5426    7.0873   12.5070 C.3     1  LIG1        0.0538
     10 H          -0.2084    7.2685   11.9211 H       1  LIG1        0.0564
     11 H           0.9152    7.9329   12.8016 H       1  LIG1        0.0564
     12 C           1.1505    4.9518   11.9840 C.3     1  LIG1        0.0895
     13 H           0.4024    4.7515   11.3829 H       1  LIG1        0.0650
     14 C           0.6703    4.8588   13.4344 C.3     1  LIG1        0.0269
     15 H           1.4088    4.6521   14.0442 H       1  LIG1        0.0362
     16 C           2.3211    4.0867   11.6218 C.ar    1  LIG1       -0.0185
     17 C           3.5917    4.3822   12.1012 C.ar    1  LIG1       -0.0561
     18 H           3.7146    5.1366   12.6295 H       1  LIG1        0.0621
     19 C           4.6644    3.5853   11.8109 C.ar    1  LIG1       -0.0614
     20 H           5.5066    3.7952   12.1427 H       1  LIG1        0.0618
     21 C           4.4886    2.4775   11.0321 C.ar    1  LIG1       -0.0617
     22 H           5.2137    1.9300   10.8349 H       1  LIG1        0.0618
     23 C           3.2498    2.1714   10.5430 C.ar    1  LIG1       -0.0614
     24 H           3.1355    1.4155   10.0157 H       1  LIG1        0.0618
     25 C           2.1646    2.9801   10.8275 C.ar    1  LIG1       -0.0561
     26 H           1.3272    2.7726   10.4807 H       1  LIG1        0.0621
     27 C          -0.5378    2.6306   12.9241 C.ar    1  LIG1       -0.0046
     28 C          -1.3358    2.4447   11.8056 C.ar    1  LIG1       -0.0551
     29 H          -1.8755    3.1419   11.5116 H       1  LIG1        0.0621
     30 C          -1.3474    1.2419   11.1144 C.ar    1  LIG1       -0.0614
     31 H          -1.8957    1.1378   10.3699 H       1  LIG1        0.0618
     32 C          -0.5464    0.2056   11.5296 C.ar    1  LIG1       -0.0607
     33 H          -0.5599   -0.6044   11.0743 H       1  LIG1        0.0618
     34 C           0.2737    0.3715   12.6214 C.ar    1  LIG1       -0.0474
     35 H           0.8336   -0.3188   12.8946 H       1  LIG1        0.0629
     36 C           0.2631    1.5650   13.3069 C.ar    1  LIG1        0.0235
     37 O          -1.6564    4.7225   13.2818 O.3     1  LIG1       -0.3712
     38 O           1.5289    6.3248   11.8230 O.3     1  LIG1       -0.3712
@<TRIPOS>BOND
     1    24    23    1
     2    31    30    1
     3    26    25    1
     4    23    25   ar
     5    23    21   ar
     6    25    16   ar
     7    22    21    1
     8    21    19   ar
     9    33    32    1
    10    30    32   ar
    11    30    28   ar
    12    13    12    1
    13    29    28    1
    14    32    34   ar
    15    16    12    1
    16    16    17   ar
    17    28    27   ar
    18    19    17   ar
    19    19    20    1
    20    38    12    1
    21    38     9    1
    22    10     9    1
    23    12    14    1
    24    17    18    1
    25     9    11    1
    26     9     7    1
    27    34    35    1
    28    34    36   ar
    29    27    36   ar
    30    27     2    1
    31     6     4    1
    32    37     2    1
    33    37     4    1
    34    36     1    1
    35    14     2    1
    36    14     7    1
    37    14    15    1
    38     2     3    1
    39     7     4    1
    40     7     8    1
    41     4     5    1
