@<TRIPOS>MOLECULE
C16 H22 O3
 82 88 0 0 0
SMALL
GASTEIGER

@<TRIPOS>ATOM
      1 O           1.1602   14.4895    1.4379 O.2     1  LIG1       -0.2971
      2 O           0.0035   15.9981    7.1512 O.3     1  LIG1       -0.3425
      3 O           0.5716   18.1609    6.7678 O.3     1  LIG1       -0.3428
      4 O           4.1540   13.5918   12.5522 O.2     2  LIG2       -0.2971
      5 O           3.1220   12.0450    6.8266 O.3     2  LIG2       -0.3425
      6 O           3.6984    9.8913    7.2331 O.3     2  LIG2       -0.3428
      7 C           0.9681   14.5240    2.6394 C.2     1  LIG1        0.1379
      8 C           1.1333   13.3520    3.5805 C.3     1  LIG1        0.0070
      9 C           0.4917   13.7981    4.9023 C.3     1  LIG1       -0.0341
     10 C           0.7442   15.3041    4.9115 C.3     1  LIG1        0.0279
     11 C          -0.1907   16.1840    5.7484 C.3     1  LIG1        0.0983
     12 C           0.1620   17.6631    5.4925 C.3     1  LIG1        0.0956
     13 C           1.3373   17.7801    4.5091 C.3     1  LIG1        0.0118
     14 C           2.4568   16.9555    5.0828 C.2     1  LIG1       -0.0812
     15 C           2.1623   15.6806    5.2758 C.2     1  LIG1       -0.0782
     16 C           0.9506   17.1604    3.1203 C.3     1  LIG1       -0.0158
     17 C           0.4763   15.7140    3.4339 C.3     1  LIG1        0.0347
     18 C           0.0586   17.2789    7.7615 C.3     1  LIG1        0.1654
     19 C           1.0437   17.2235    8.8944 C.3     1  LIG1       -0.0108
     20 C          -1.3177   17.7419    8.2000 C.3     1  LIG1       -0.0108
     21 C           2.1944   17.2183    2.2184 C.3     1  LIG1       -0.0585
     22 C          -0.1648   17.9768    2.4537 C.3     1  LIG1       -0.0585
     23 C           3.9811   13.5519   11.3543 C.2     2  LIG2        0.1379
     24 C           4.1557   14.7206   10.4009 C.3     2  LIG2        0.0070
     25 C           3.5586   14.2552    9.0647 C.3     2  LIG2       -0.0341
     26 C           3.8130   12.7507    9.0750 C.3     2  LIG2        0.0279
     27 C           2.8986   11.8687    8.2268 C.3     2  LIG2        0.0983
     28 C           3.2501   10.3906    8.4972 C.3     2  LIG2        0.0956
     29 C           4.3983   10.2827    9.5187 C.3     2  LIG2        0.0118
     30 C           5.5342   11.1022    8.9615 C.2     2  LIG2       -0.0812
     31 C           5.2412   12.3766    8.7562 C.2     2  LIG2       -0.0782
     32 C           3.9813   10.9044   10.8890 C.3     2  LIG2       -0.0158
     33 C           3.5097   12.3508   10.5485 C.3     2  LIG2        0.0347
     34 C           3.2058   10.7603    6.2137 C.3     2  LIG2        0.1654
     35 C           4.2202   10.8369    5.1035 C.3     2  LIG2       -0.0108
     36 C           1.8428   10.2873    5.7463 C.3     2  LIG2       -0.0108
     37 C           5.1815   10.8584   11.8310 C.3     2  LIG2       -0.0585
     38 C           2.8413   10.1065   11.5380 C.3     2  LIG2       -0.0585
     39 H           2.1021   13.1451    3.7146 H       1  LIG1        0.0342
     40 H           0.6671   12.5444    3.2193 H       1  LIG1        0.0342
     41 H           0.9312   13.3548    5.6834 H       1  LIG1        0.0279
     42 H          -0.4877   13.5968    4.9126 H       1  LIG1        0.0279
     43 H          -1.1444   16.0075    5.5038 H       1  LIG1        0.0632
     44 H          -0.6340   18.1648    5.1540 H       1  LIG1        0.0629
     45 H           1.6183   18.7342    4.4059 H       1  LIG1        0.0374
     46 H           3.3531   17.3412    5.3005 H       1  LIG1        0.0573
     47 H           2.8233   15.0204    5.6338 H       1  LIG1        0.0576
     48 H          -0.5177   15.7222    3.3277 H       1  LIG1        0.0392
     49 H           1.0954   18.1194    9.3360 H       1  LIG1        0.0281
     50 H           0.7470   16.5400    9.5610 H       1  LIG1        0.0281
     51 H           1.9452   16.9743    8.5405 H       1  LIG1        0.0281
     52 H          -1.2467   18.6443    8.6251 H       1  LIG1        0.0281
     53 H          -1.9206   17.7947    7.4034 H       1  LIG1        0.0281
     54 H          -1.6930   17.0913    8.8604 H       1  LIG1        0.0281
     55 H           1.9752   16.8293    1.3238 H       1  LIG1        0.0235
     56 H           2.4818   18.1696    2.1070 H       1  LIG1        0.0235
     57 H           2.9344   16.6930    2.6384 H       1  LIG1        0.0235
     58 H          -0.3957   17.5665    1.5715 H       1  LIG1        0.0235
     59 H           0.1473   18.9163    2.3134 H       1  LIG1        0.0235
     60 H          -0.9737   17.9788    3.0419 H       1  LIG1        0.0235
     61 H           3.6677   15.5245   10.7414 H       2  LIG2        0.0342
     62 H           5.1254   14.9410   10.2926 H       2  LIG2        0.0342
     63 H           4.0215   14.6922    8.2939 H       2  LIG2        0.0279
     64 H           2.5794   14.4534    9.0213 H       2  LIG2        0.0279
     65 H           1.9403   12.0447    8.4518 H       2  LIG2        0.0632
     66 H           2.4458    9.8868    8.8129 H       2  LIG2        0.0629
     67 H           4.6762    9.3291    9.6363 H       2  LIG2        0.0374
     68 H           6.4349   10.7147    8.7634 H       2  LIG2        0.0573
     69 H           5.9108   13.0376    8.4167 H       2  LIG2        0.0576
     70 H           2.5132   12.3406   10.6300 H       2  LIG2        0.0392
     71 H           4.2949    9.9443    4.6587 H       2  LIG2        0.0281
     72 H           5.1088   11.0970    5.4811 H       2  LIG2        0.0281
     73 H           3.9293   11.5198    4.4328 H       2  LIG2        0.0281
     74 H           1.9298    9.3860    5.3222 H       2  LIG2        0.0281
     75 H           1.2235   10.2285    6.5305 H       2  LIG2        0.0281
     76 H           1.4757   10.9359    5.0797 H       2  LIG2        0.0281
     77 H           4.9281   11.2539   12.7143 H       2  LIG2        0.0235
     78 H           5.9358   11.3824   11.4358 H       2  LIG2        0.0235
     79 H           5.4675    9.9089   11.9610 H       2  LIG2        0.0235
     80 H           2.5963   10.5267   12.4120 H       2  LIG2        0.0235
     81 H           3.1389    9.1646   11.6928 H       2  LIG2        0.0235
     82 H           2.0454   10.1093   10.9323 H       2  LIG2        0.0235
@<TRIPOS>BOND
     1    55    21    1
     2     1     7    2
     3    58    22    1
     4    56    21    1
     5    21    57    1
     6    21    16    1
     7    59    22    1
     8    22    60    1
     9    22    16    1
    10     7    17    1
    11     7     8    1
    12    16    17    1
    13    16    13    1
    14    40     8    1
    15    48    17    1
    16    17    10    1
    17     8    39    1
    18     8     9    1
    19    45    13    1
    20    73    35    1
    21    13    14    1
    22    13    12    1
    23    71    35    1
    24     9    10    1
    25     9    42    1
    26     9    41    1
    27    10    15    1
    28    10    11    1
    29    76    36    1
    30    14    15    2
    31    14    46    1
    32    35    72    1
    33    35    34    1
    34    44    12    1
    35    15    47    1
    36    74    36    1
    37    12    11    1
    38    12     3    1
    39    43    11    1
    40    36    34    1
    41    36    75    1
    42    11     2    1
    43    34     5    1
    44    34     6    1
    45     3    18    1
    46     5    27    1
    47     2    18    1
    48     6    28    1
    49    53    20    1
    50    18    20    1
    51    18    19    1
    52    20    52    1
    53    20    54    1
    54    27    65    1
    55    27    28    1
    56    27    26    1
    57    63    25    1
    58    69    31    1
    59    28    66    1
    60    28    29    1
    61    51    19    1
    62    31    30    2
    63    31    26    1
    64    68    30    1
    65    19    49    1
    66    19    50    1
    67    30    29    1
    68    64    25    1
    69    25    26    1
    70    25    24    1
    71    26    33    1
    72    29    67    1
    73    29    32    1
    74    62    24    1
    75    24    61    1
    76    24    23    1
    77    33    70    1
    78    33    32    1
    79    33    23    1
    80    32    38    1
    81    32    37    1
    82    82    38    1
    83    23     4    2
    84    78    37    1
    85    38    81    1
    86    38    80    1
    87    37    79    1
    88    37    77    1
