@<TRIPOS>MOLECULE
?
 30 32 0 0 0
SMALL
GASTEIGER

@<TRIPOS>ATOM
      1 N          -1.6157    9.8703    0.5431 N.am    1  LIG1       -0.2809
      2 H          -1.7307    9.3203   -0.1329 H       1  LIG1        0.1552
      3 O           0.1116    8.7731    1.6282 O.2     1  LIG1       -0.2698
      4 O          -0.5097   13.0086    4.5082 O.2     1  LIG1       -0.2873
      5 C          -3.3709   11.5359   -0.0512 C.ar    1  LIG1       -0.0399
      6 H          -3.6397   11.0854   -0.8426 H       1  LIG1        0.0636
      7 C          -3.9834   12.7216    0.3535 C.ar    1  LIG1       -0.0600
      8 H          -4.6884   13.0843   -0.1694 H       1  LIG1        0.0618
      9 C          -3.5814   13.3829    1.5102 C.ar    1  LIG1       -0.0611
     10 H          -4.0206   14.1853    1.7645 H       1  LIG1        0.0618
     11 C          -2.5420   12.8860    2.3029 C.ar    1  LIG1       -0.0521
     12 H          -2.2639   13.3499    3.0831 H       1  LIG1        0.0624
     13 C          -1.9222   11.6958    1.9238 C.ar    1  LIG1        0.0084
     14 C          -2.3560   11.0453    0.7478 C.ar    1  LIG1        0.0416
     15 C          -0.6987    9.6963    1.5285 C.2     1  LIG1        0.2490
     16 C          -0.8441   10.8701    2.4855 C.2     1  LIG1        0.0495
     17 C          -0.0064   10.9045    3.5393 C.2     1  LIG1       -0.0016
     18 H           0.5528   10.1444    3.6491 H       1  LIG1        0.0664
     19 C           0.1547   11.9832    4.5551 C.2     1  LIG1        0.1868
     20 C           1.2206   11.8054    5.6003 C.ar    1  LIG1        0.0217
     21 C           1.5187   12.9048    6.4108 C.ar    1  LIG1       -0.0509
     22 H           1.0335   13.7143    6.3012 H       1  LIG1        0.0625
     23 C           2.5156   12.8263    7.3724 C.ar    1  LIG1       -0.0611
     24 H           2.7114   13.5815    7.9156 H       1  LIG1        0.0618
     25 C           3.2245   11.6508    7.5424 C.ar    1  LIG1       -0.0617
     26 H           3.9139   11.6019    8.1944 H       1  LIG1        0.0618
     27 C           2.9293   10.5419    6.7596 C.ar    1  LIG1       -0.0611
     28 H           3.4130    9.7335    6.8801 H       1  LIG1        0.0618
     29 C           1.9241   10.6140    5.7961 C.ar    1  LIG1       -0.0509
     30 H           1.7165    9.8504    5.2700 H       1  LIG1        0.0625
@<TRIPOS>BOND
     1     6     5    1
     2     8     7    1
     3     2     1    1
     4     5     7   ar
     5     5    14   ar
     6     7     9   ar
     7     1    14    1
     8     1    15   am
     9    14    13   ar
    10     9    10    1
    11     9    11   ar
    12    15     3    2
    13    15    16    1
    14    13    11   ar
    15    13    16    1
    16    11    12    1
    17    16    17    2
    18    17    18    1
    19    17    19    1
    20     4    19    2
    21    19    20    1
    22    30    29    1
    23    20    29   ar
    24    20    21   ar
    25    29    27   ar
    26    22    21    1
    27    21    23   ar
    28    27    28    1
    29    27    25   ar
    30    23    25   ar
    31    23    24    1
    32    25    26    1
