@<TRIPOS>MOLECULE
?
 43 45 0 0 0
SMALL
GASTEIGER

@<TRIPOS>ATOM
      1 S           5.2691    6.2287    2.9578 S.2     1  LIG1       -0.0169
      2 N           7.0220    3.4856    6.0125 N.ar    1  LIG1       -0.2534
      3 N           4.2065    4.1943    6.0808 N.2     1  LIG1       -0.1785
      4 N           4.9298    4.7874    5.1003 N.am    1  LIG1       -0.2175
      5 H           5.7349    4.6453    5.0234 H       1  LIG1        0.1763
      6 N           2.9813    5.6199    4.2983 N.am    1  LIG1       -0.2956
      7 H           2.7262    5.2520    5.0556 H       1  LIG1        0.1539
      8 C           4.7918    3.4451    6.9678 C.2     1  LIG1        0.1142
      9 C           6.2408    3.1388    7.0540 C.ar    1  LIG1        0.0912
     10 C           8.3238    3.1990    6.0729 C.ar    1  LIG1        0.0283
     11 H           8.8310    3.4314    5.2840 H       1  LIG1        0.0830
     12 C           8.9175    2.5638    7.1401 C.ar    1  LIG1       -0.0436
     13 H           9.8477    2.3530    7.1526 H       1  LIG1        0.0633
     14 C           8.1313    2.2206    8.2135 C.ar    1  LIG1       -0.0583
     15 H           8.5298    1.7905    8.9900 H       1  LIG1        0.0619
     16 C           6.7836    2.5167    8.1793 C.ar    1  LIG1       -0.0341
     17 H           6.2490    2.2773    8.8966 H       1  LIG1        0.0639
     18 C           3.8446    2.8739    7.9602 C.ar    1  LIG1        0.0039
     19 C           3.8279    1.5139    8.2602 C.ar    1  LIG1       -0.0524
     20 H           4.4110    0.9273    7.8274 H       1  LIG1        0.0624
     21 C           2.9171    1.0025    9.1613 C.ar    1  LIG1       -0.0611
     22 H           2.9074    0.0637    9.3430 H       1  LIG1        0.0618
     23 C           2.0124    1.8341    9.7925 C.ar    1  LIG1       -0.0617
     24 H           1.3883    1.4716   10.4226 H       1  LIG1        0.0618
     25 C           2.0161    3.1896    9.5018 C.ar    1  LIG1       -0.0611
     26 H           1.3595    3.8249    9.9347 H       1  LIG1        0.0618
     27 C           2.9124    3.7041    8.5904 C.ar    1  LIG1       -0.0524
     28 H           2.9188    4.6357    8.3952 H       1  LIG1        0.0624
     29 C           4.3148    5.5407    4.1358 C.2     1  LIG1        0.1542
     30 C           1.9637    6.2085    3.5119 C.ar    1  LIG1        0.0326
     31 C           0.6863    6.1718    4.0580 C.ar    1  LIG1       -0.0403
     32 H           0.5789    5.7506    4.9310 H       1  LIG1        0.0636
     33 C          -0.3913    6.6991    3.3739 C.ar    1  LIG1       -0.0571
     34 H          -1.2375    6.6519    3.7787 H       1  LIG1        0.0621
     35 C          -0.2368    7.2800    2.1229 C.ar    1  LIG1       -0.0503
     36 C           1.0423    7.3080    1.5977 C.ar    1  LIG1       -0.0571
     37 H           1.1462    7.7062    0.7267 H       1  LIG1        0.0621
     38 C           2.1362    6.7834    2.2652 C.ar    1  LIG1       -0.0403
     39 H           2.9934    6.8217    1.8582 H       1  LIG1        0.0636
     40 C          -1.4098    7.8264    1.3662 C.3     1  LIG1       -0.0397
     41 H          -1.1715    8.4198    0.6644 H       1  LIG1        0.0278
     42 H          -2.0058    8.3011    1.9205 H       1  LIG1        0.0278
     43 H          -1.9335    7.1333    0.9758 H       1  LIG1        0.0278
@<TRIPOS>BOND
     1    41    40    1
     2    37    36    1
     3    43    40    1
     4    40    42    1
     5    40    35    1
     6    36    35   ar
     7    36    38   ar
     8    39    38    1
     9    35    33   ar
    10    38    30   ar
    11     1    29    2
    12    33    34    1
    13    33    31   ar
    14    30    31   ar
    15    30     6    1
    16    31    32    1
    17    29     6    1
    18    29     4    1
    19     6     7    1
    20     5     4    1
    21     4     3    1
    22    11    10    1
    23     2    10   ar
    24     2     9   ar
    25    10    12   ar
    26     3     8    2
    27     8     9    1
    28     8    18    1
    29     9    16   ar
    30    12    13    1
    31    12    14   ar
    32    20    19    1
    33    18    19   ar
    34    18    27   ar
    35    16    14   ar
    36    16    17    1
    37    14    15    1
    38    19    21   ar
    39    28    27    1
    40    27    25   ar
    41    21    22    1
    42    21    23   ar
    43    25    23   ar
    44    25    26    1
    45    23    24    1
