@<TRIPOS>MOLECULE
2,2-dichloro-3-hydroxy-3-(4-nitrophenyl)-1-(p-tolyl)propan-1-one
 36 37 0 0 0
SMALL
GASTEIGER

@<TRIPOS>ATOM
      1 CL          7.2779    7.1596    8.5819 Cl      1  LIG1       -0.0891
      2 CL          5.7752    4.9022    7.5237 Cl      1  LIG1       -0.0891
      3 O           8.7125    5.7837    5.5907 O.2     1  LIG1       -0.2888
      4 O           6.1679    6.3360    4.8492 O.3     1  LIG1       -0.3838
      5 H           7.0184    6.0104    4.5636 H       1  LIG1        0.2104
      6 O           0.5443    9.5636    6.6314 O.2     1  LIG1       -0.1261
      7 O           1.6008   10.7531    8.0846 O.2     1  LIG1       -0.1261
      8 N           1.5647    9.8703    7.2383 N.pl3   1  LIG1        0.0564
      9 C          11.4752    1.8730    9.9037 C.3     1  LIG1       -0.0397
     10 H          10.9528    1.0551   10.0398 H       1  LIG1        0.0278
     11 H          11.7027    2.2633   10.7734 H       1  LIG1        0.0278
     12 H          12.2981    1.6585    9.4173 H       1  LIG1        0.0278
     13 C          10.6661    2.8570    9.1103 C.ar    1  LIG1       -0.0504
     14 C          11.0531    3.2423    7.8263 C.ar    1  LIG1       -0.0582
     15 H          11.8604    2.9052    7.4568 H       1  LIG1        0.0620
     16 C          10.2735    4.1061    7.0914 C.ar    1  LIG1       -0.0509
     17 H          10.5539    4.3579    6.2198 H       1  LIG1        0.0625
     18 C           9.0798    4.6191    7.5992 C.ar    1  LIG1        0.0205
     19 C           8.7024    4.2486    8.8954 C.ar    1  LIG1       -0.0509
     20 H           7.9003    4.5931    9.2702 H       1  LIG1        0.0625
     21 C           9.4864    3.3910    9.6277 C.ar    1  LIG1       -0.0582
     22 H           9.2176    3.1548   10.5082 H       1  LIG1        0.0620
     23 C           8.3077    5.5120    6.6995 C.2     1  LIG1        0.2014
     24 C           6.9627    6.1732    7.1288 C.3     1  LIG1        0.2095
     25 C           6.4127    7.0923    6.0091 C.3     1  LIG1        0.1201
     26 H           7.1060    7.7798    5.7965 H       1  LIG1        0.0678
     27 C           5.1261    7.8049    6.3670 C.ar    1  LIG1       -0.0157
     28 C           3.8986    7.2657    6.0057 C.ar    1  LIG1       -0.0539
     29 H           3.8664    6.4209    5.5713 H       1  LIG1        0.0622
     30 C           2.7243    7.9425    6.2689 C.ar    1  LIG1       -0.0311
     31 H           1.8854    7.5841    6.0047 H       1  LIG1        0.0640
     32 C           2.8012    9.1543    6.9278 C.ar    1  LIG1        0.1262
     33 C           3.9996    9.7164    7.3017 C.ar    1  LIG1       -0.0311
     34 H           4.0246   10.5495    7.7580 H       1  LIG1        0.0640
     35 C           5.1648    9.0409    6.9984 C.ar    1  LIG1       -0.0539
     36 H           6.0028    9.4259    7.2256 H       1  LIG1        0.0622
@<TRIPOS>BOND
     1     5     4    1
     2     4    25    1
     3    29    28    1
     4     3    23    2
     5    26    25    1
     6    31    30    1
     7    28    30   ar
     8    28    27   ar
     9    25    27    1
    10    25    24    1
    11    17    16    1
    12    30    32   ar
    13    27    35   ar
    14     6     8    2
    15    23    24    1
    16    23    18    1
    17    32     8    1
    18    32    33   ar
    19    35    36    1
    20    35    33   ar
    21    16    18   ar
    22    16    14   ar
    23    24     2    1
    24    24     1    1
    25     8     7    2
    26    33    34    1
    27    15    14    1
    28    18    19   ar
    29    14    13   ar
    30    19    20    1
    31    19    21   ar
    32    13    21   ar
    33    13     9    1
    34    12     9    1
    35    21    22    1
    36     9    10    1
    37     9    11    1
