@<TRIPOS>MOLECULE
?
 68 71 0 0 0
SMALL
GASTEIGER

@<TRIPOS>ATOM
      1 P           2.1112    6.9280   13.2425 P.3     1  LIG1        0.0000
      2 B           0.8715    3.4135   15.1713 B       1  LIG1        0.0000
      3 C           1.5974    5.2691   13.6276 C.2     1  LIG1        0.0000
      4 H           1.3661    4.7067   12.9098 H       1  LIG1        0.0000
      5 C           1.5157    4.7582   14.8741 C.2     1  LIG1        0.0000
      6 H           1.8718    5.2546   15.5884 H       1  LIG1        0.0000
      7 C           3.2575    7.3606   14.6042 C.ar    1  LIG1        0.0000
      8 C           2.7634    8.2245   15.5969 C.ar    1  LIG1        0.0000
      9 C           3.6058    8.5858   16.6549 C.ar    1  LIG1        0.0000
     10 H           3.2809    9.1713   17.3150 H       1  LIG1        0.0000
     11 C           4.8939    8.1118   16.7597 C.ar    1  LIG1        0.0000
     12 C           5.3551    7.2631   15.7845 C.ar    1  LIG1        0.0000
     13 H           6.2356    6.9401   15.8472 H       1  LIG1        0.0000
     14 C           4.5760    6.8605   14.7093 C.ar    1  LIG1        0.0000
     15 C           1.3588    8.7707   15.5743 C.3     1  LIG1        0.0000
     16 H           1.2392    9.3848   16.3145 H       1  LIG1        0.0000
     17 H           0.7263    8.0403   15.6561 H       1  LIG1        0.0000
     18 H           1.2073    9.2374   14.7372 H       1  LIG1        0.0000
     19 C           5.7766    8.5156   17.9343 C.3     1  LIG1        0.0000
     20 H           5.2600    9.0481   18.5588 H       1  LIG1        0.0000
     21 H           6.5284    9.0349   17.6103 H       1  LIG1        0.0000
     22 H           6.1024    7.7191   18.3816 H       1  LIG1        0.0000
     23 C           5.1720    5.9004   13.7198 C.3     1  LIG1        0.0000
     24 H           6.0257    5.5803   14.0528 H       1  LIG1        0.0000
     25 H           5.3045    6.3504   12.8716 H       1  LIG1        0.0000
     26 H           4.5716    5.1490   13.5960 H       1  LIG1        0.0000
     27 C           3.0219    7.0103   11.6503 C.ar    1  LIG1        0.0000
     28 C           3.3063    5.9502   10.7639 C.ar    1  LIG1        0.0000
     29 C           3.9279    6.2333    9.5476 C.ar    1  LIG1        0.0000
     30 H           4.1205    5.5231    8.9632 H       1  LIG1        0.0000
     31 C           4.2680    7.5078    9.1712 C.ar    1  LIG1        0.0000
     32 C           3.9834    8.5403   10.0491 C.ar    1  LIG1        0.0000
     33 H           4.2178    9.4178    9.8074 H       1  LIG1        0.0000
     34 C           3.3620    8.3266   11.2746 C.ar    1  LIG1        0.0000
     35 C           2.9879    4.5065   11.0295 C.3     1  LIG1        0.0000
     36 H           3.2799    4.2710   11.9232 H       1  LIG1        0.0000
     37 H           3.4468    3.9498   10.3807 H       1  LIG1        0.0000
     38 H           2.0310    4.3678   10.9556 H       1  LIG1        0.0000
     39 C           4.9217    7.7849    7.8387 C.3     1  LIG1        0.0000
     40 H           5.3971    6.9929    7.5406 H       1  LIG1        0.0000
     41 H           5.5450    8.5222    7.9314 H       1  LIG1        0.0000
     42 H           4.2410    8.0161    7.1880 H       1  LIG1        0.0000
     43 C           3.0893    9.5177   12.1480 C.3     1  LIG1        0.0000
     44 H           3.6940    9.5080   12.9064 H       1  LIG1        0.0000
     45 H           2.1736    9.4838   12.4651 H       1  LIG1        0.0000
     46 H           3.2252   10.3310   11.6366 H       1  LIG1        0.0000
     47 C           0.4028    3.0258   16.6221 C.ar    1  LIG1        0.0000
     48 C          -0.0518    3.9649   17.5410 C.ar    1  LIG1        0.0000
     49 F          -0.0464    5.2711   17.2273 F       1  LIG1        0.0000
     50 C          -0.5681    3.6406   18.7794 C.ar    1  LIG1        0.0000
     51 F          -1.0156    4.6075   19.5968 F       1  LIG1        0.0000
     52 C          -0.6135    2.3300   19.1612 C.ar    1  LIG1        0.0000
     53 F          -1.1203    1.9940   20.3589 F       1  LIG1        0.0000
     54 C          -0.1391    1.3616   18.3236 C.ar    1  LIG1        0.0000
     55 F          -0.1336    0.0764   18.7140 F       1  LIG1        0.0000
     56 C           0.3494    1.7143   17.0824 C.ar    1  LIG1        0.0000
     57 F           0.8198    0.7182   16.3108 F       1  LIG1        0.0000
     58 C           0.6494    2.3881   13.9767 C.ar    1  LIG1        0.0000
     59 C          -0.6035    1.9306   13.6159 C.ar    1  LIG1        0.0000
     60 F          -1.6821    2.3549   14.3021 F       1  LIG1        0.0000
     61 C          -0.8311    1.0714   12.5624 C.ar    1  LIG1        0.0000
     62 F          -2.0702    0.6614   12.2678 F       1  LIG1        0.0000
     63 C           0.2435    0.6430   11.8139 C.ar    1  LIG1        0.0000
     64 F           0.0371   -0.1895   10.7823 F       1  LIG1        0.0000
     65 C           1.5014    1.0778   12.1188 C.ar    1  LIG1        0.0000
     66 F           2.5496    0.6650   11.3826 F       1  LIG1        0.0000
     67 C           1.6903    1.9227   13.1940 C.ar    1  LIG1        0.0000
     68 F           2.9596    2.2627   13.4902 F       1  LIG1        0.0000
@<TRIPOS>BOND
     1    42    39    1
     2    40    39    1
     3    39    41    1
     4    39    31    1
     5    30    29    1
     6    31    29   ar
     7    31    32   ar
     8    29    28   ar
     9    33    32    1
    10    32    34   ar
    11    37    35    1
    12    28    35    1
    13    28    27   ar
    14    64    63    1
    15    38    35    1
    16    35    36    1
    17    34    27   ar
    18    34    43    1
    19    66    65    1
    20    46    43    1
    21    27     1    1
    22    63    65   ar
    23    63    61   ar
    24    65    67   ar
    25    43    45    1
    26    43    44    1
    27    62    61    1
    28    61    59   ar
    29    25    23    1
    30     4     3    1
    31    67    68    1
    32    67    58   ar
    33     1     3    1
    34     1     7    1
    35    26    23    1
    36    59    58   ar
    37    59    60    1
    38     3     5    2
    39    23    24    1
    40    23    14    1
    41    58     2    1
    42     7    14   ar
    43     7     8   ar
    44    14    12   ar
    45    18    15    1
    46     5     2    1
    47     5     6    1
    48     2    47    1
    49    15     8    1
    50    15    17    1
    51    15    16    1
    52     8     9   ar
    53    12    13    1
    54    12    11   ar
    55    57    56    1
    56    47    56   ar
    57    47    48   ar
    58     9    11   ar
    59     9    10    1
    60    11    19    1
    61    56    54   ar
    62    49    48    1
    63    48    50   ar
    64    21    19    1
    65    19    22    1
    66    19    20    1
    67    54    55    1
    68    54    52   ar
    69    50    52   ar
    70    50    51    1
    71    52    53    1
