@<TRIPOS>MOLECULE
7154655.cif
 63 66 0 0 0
SMALL
GASTEIGER

@<TRIPOS>ATOM
      1 B           5.2282    4.8831    4.7220 B       1  LIG1        0.0000
      2 C           5.5371    3.3038    4.8775 C.2     1  LIG1        0.0000
      3 H           5.4495    2.7846    4.0865 H       1  LIG1        0.0000
      4 N           2.4262    2.9190    5.1489 N.3     1  LIG1        0.0000
      5 C           5.8999    2.6373    5.9753 C.2     1  LIG1        0.0000
      6 H           6.1133    3.1569    6.7408 H       1  LIG1        0.0000
      7 C           6.0028    1.1757    6.1163 C.2     1  LIG1        0.0000
      8 C           6.2795    0.6363    7.3084 C.2     1  LIG1        0.0000
      9 H           6.4097    1.1958    8.0643 H       1  LIG1        0.0000
     10 H           6.3447   -0.3074    7.3998 H       1  LIG1        0.0000
     11 C           5.7827    0.3147    4.9094 C.3     1  LIG1        0.0000
     12 H           5.8702   -0.6279    5.1601 H       1  LIG1        0.0000
     13 H           6.4502    0.5346    4.2259 H       1  LIG1        0.0000
     14 H           4.8843    0.4762    4.5518 H       1  LIG1        0.0000
     15 C           3.5213    5.0462    4.7620 C.3     1  LIG1        0.0000
     16 H           3.2840    5.1402    5.7287 H       1  LIG1        0.0000
     17 C           2.8538    3.8076    4.3093 C.3     1  LIG1        0.0000
     18 C           2.6490    3.6140    2.8377 C.3     1  LIG1        0.0000
     19 H           2.1249    2.7902    2.6760 H       1  LIG1        0.0000
     20 H           3.5249    3.5191    2.3863 H       1  LIG1        0.0000
     21 C           1.8991    4.8290    2.2730 C.3     1  LIG1        0.0000
     22 H           1.7815    4.7204    1.2964 H       1  LIG1        0.0000
     23 H           1.0016    4.8853    2.6869 H       1  LIG1        0.0000
     24 C           2.6701    6.1112    2.5540 C.3     1  LIG1        0.0000
     25 H           2.1623    6.8866    2.2053 H       1  LIG1        0.0000
     26 H           3.5433    6.0812    2.0876 H       1  LIG1        0.0000
     27 C           2.8989    6.2843    4.0580 C.3     1  LIG1        0.0000
     28 H           2.0313    6.4900    4.4884 H       1  LIG1        0.0000
     29 H           3.4949    7.0624    4.2005 H       1  LIG1        0.0000
     30 C           2.4997    3.0344    6.6294 C.3     1  LIG1        0.0000
     31 H           2.1916    3.9257    6.9309 H       1  LIG1        0.0000
     32 H           3.4248    2.8887    6.9508 H       1  LIG1        0.0000
     33 C           1.5741    1.9422    7.1279 C.3     1  LIG1        0.0000
     34 H           0.6369    2.2574    7.1644 H       1  LIG1        0.0000
     35 H           1.8461    1.6251    8.0263 H       1  LIG1        0.0000
     36 C           1.7463    0.8475    6.0814 C.3     1  LIG1        0.0000
     37 H           2.5910    0.3503    6.2193 H       1  LIG1        0.0000
     38 H           0.9889    0.2108    6.1016 H       1  LIG1        0.0000
     39 C           1.7745    1.6218    4.7810 C.3     1  LIG1        0.0000
     40 H           2.3022    1.1424    4.0937 H       1  LIG1        0.0000
     41 H           0.8584    1.7705    4.4377 H       1  LIG1        0.0000
     42 C           5.9196    5.6970    6.0030 C.ar    1  LIG1        0.0000
     43 C           5.3160    6.5121    6.9553 C.ar    1  LIG1        0.0000
     44 F           3.9929    6.7950    6.9151 F       1  LIG1        0.0000
     45 C           5.9807    7.1385    7.9939 C.ar    1  LIG1        0.0000
     46 F           5.3131    7.9083    8.8729 F       1  LIG1        0.0000
     47 C           7.3400    6.9830    8.1288 C.ar    1  LIG1        0.0000
     48 F           8.0073    7.5598    9.1429 F       1  LIG1        0.0000
     49 C           8.0109    6.2043    7.2043 C.ar    1  LIG1        0.0000
     50 F           9.3412    6.0579    7.3113 F       1  LIG1        0.0000
     51 C           7.3003    5.5918    6.1865 C.ar    1  LIG1        0.0000
     52 F           8.0427    4.8607    5.3216 F       1  LIG1        0.0000
     53 C           5.8776    5.5432    3.3356 C.ar    1  LIG1        0.0000
     54 C           6.1296    6.9126    3.2163 C.ar    1  LIG1        0.0000
     55 F           5.7991    7.7610    4.2226 F       1  LIG1        0.0000
     56 C           6.7042    7.5239    2.1180 C.ar    1  LIG1        0.0000
     57 F           6.9108    8.8503    2.1061 F       1  LIG1        0.0000
     58 C           7.0598    6.7581    1.0295 C.ar    1  LIG1        0.0000
     59 F           7.6349    7.3208   -0.0418 F       1  LIG1        0.0000
     60 C           6.8298    5.4120    1.0744 C.ar    1  LIG1        0.0000
     61 F           7.1884    4.6318    0.0335 F       1  LIG1        0.0000
     62 C           6.2612    4.8351    2.1989 C.ar    1  LIG1        0.0000
     63 F           6.0838    3.4964    2.1066 F       1  LIG1        0.0000
@<TRIPOS>BOND
     1    59    58    1
     2    61    60    1
     3    58    60   ar
     4    58    56   ar
     5    60    62   ar
     6    22    21    1
     7    26    24    1
     8    57    56    1
     9    63    62    1
    10    56    54   ar
    11    62    53   ar
    12    25    24    1
    13    21    24    1
    14    21    23    1
    15    21    18    1
    16    20    18    1
    17    24    27    1
    18    19    18    1
    19    18    17    1
    20    54    53   ar
    21    54    55    1
    22    53     1    1
    23    27    29    1
    24    27    28    1
    25    27    15    1
    26     3     2    1
    27    40    39    1
    28    13    11    1
    29    17    15    1
    30    17     4    1
    31    41    39    1
    32    14    11    1
    33     1    15    1
    34     1     2    1
    35     1    42    1
    36    15    16    1
    37    39     4    1
    38    39    36    1
    39     2     5    2
    40    11    12    1
    41    11     7    1
    42     4    30    1
    43    52    51    1
    44     5     7    1
    45     5     6    1
    46    42    51   ar
    47    42    43   ar
    48    36    38    1
    49    36    37    1
    50    36    33    1
    51     7     8    2
    52    51    49   ar
    53    30    31    1
    54    30    32    1
    55    30    33    1
    56    44    43    1
    57    43    45   ar
    58    33    34    1
    59    33    35    1
    60    49    50    1
    61    49    47   ar
    62     8    10    1
    63     8     9    1
    64    45    47   ar
    65    45    46    1
    66    47    48    1
