@<TRIPOS>MOLECULE
5
 75 78 0 0 0
SMALL
GASTEIGER

@<TRIPOS>ATOM
      1 C          14.2348    3.1578    0.1565 C.3     1  LIG1       -0.0397
      2 H          15.1369    3.0962    0.4768 H       1  LIG1        0.0278
      3 H          13.9863    4.0828    0.0789 H       1  LIG1        0.0278
      4 H          14.1711    2.7363   -0.7039 H       1  LIG1        0.0278
      5 C          13.2939    2.4571    1.1401 C.ar    1  LIG1       -0.0503
      6 C          12.1071    1.9349    0.7373 C.ar    1  LIG1       -0.0570
      7 H          11.8728    1.9910   -0.1601 H       1  LIG1        0.0621
      8 C          11.2445    1.3293    1.6121 C.ar    1  LIG1       -0.0348
      9 H          10.4413    0.9713    1.3074 H       1  LIG1        0.0637
     10 C          11.5722    1.2539    2.9433 C.ar    1  LIG1        0.1085
     11 C          12.7551    1.7991    3.3688 C.ar    1  LIG1       -0.0348
     12 H          12.9862    1.7616    4.2686 H       1  LIG1        0.0637
     13 C          13.5996    2.4010    2.4713 C.ar    1  LIG1       -0.0570
     14 H          14.3940    2.7776    2.7725 H       1  LIG1        0.0621
     15 C           8.6302    2.3711    3.7440 C.ar    1  LIG1        0.0594
     16 C           7.6048    1.6811    3.1023 C.ar    1  LIG1        0.0067
     17 H           7.4985    0.7696    3.2541 H       1  LIG1        0.0674
     18 C           6.7508    2.3295    2.2526 C.ar    1  LIG1        0.1633
     19 C           6.9020    3.7006    2.0375 C.ar    1  LIG1        0.1622
     20 C           7.9064    4.3768    2.6733 C.ar    1  LIG1       -0.0068
     21 H           8.0079    5.2876    2.5179 H       1  LIG1        0.0662
     22 C           8.7832    3.7299    3.5516 C.ar    1  LIG1        0.0079
     23 C           5.9669    5.6691    1.0648 C.3     1  LIG1        0.0790
     24 H           5.8252    6.0630    1.9288 H       1  LIG1        0.0660
     25 H           5.2547    5.9269    0.4744 H       1  LIG1        0.0660
     26 H           6.8051    5.9744    0.7087 H       1  LIG1        0.0660
     27 C           5.4671    0.3737    1.8129 C.3     1  LIG1        0.0790
     28 H           6.2255   -0.1416    1.5284 H       1  LIG1        0.0660
     29 H           4.6895    0.0976    1.3217 H       1  LIG1        0.0660
     30 H           5.3178    0.2329    2.7509 H       1  LIG1        0.0660
     31 C           9.8325    4.5035    4.2710 C.2     1  LIG1       -0.0193
     32 C          10.8750    4.9596    3.5755 C.2     1  LIG1       -0.0762
     33 H          10.8693    4.7698    2.6661 H       1  LIG1        0.0578
     34 C          12.0278    5.7232    4.0607 C.3     1  LIG1       -0.0341
     35 H          11.7992    6.0937    4.9271 H       1  LIG1        0.0308
     36 H          12.7613    5.1029    4.1969 H       1  LIG1        0.0308
     37 C          12.4895    6.7613    3.2576 C.3     1  LIG1       -0.0524
     38 H          11.7507    7.3769    3.1310 H       1  LIG1        0.0266
     39 H          12.6927    6.3833    2.3877 H       1  LIG1        0.0266
     40 C          13.6473    7.5565    3.6663 C.3     1  LIG1       -0.0650
     41 H          13.7482    7.5089    4.6200 H       1  LIG1        0.0230
     42 H          13.5171    8.4706    3.4034 H       1  LIG1        0.0230
     43 H          14.4378    7.2108    3.2433 H       1  LIG1        0.0230
     44 C           9.7404    4.6926    5.7182 C.2     1  LIG1       -0.0460
     45 H          10.5446    4.8781    6.1472 H       1  LIG1        0.0630
     46 C           8.6621    4.6384    6.5177 C.2     1  LIG1       -0.0102
     47 C           7.2685    4.5235    6.0193 C.ar    1  LIG1       -0.0173
     48 C           6.5054    3.3936    6.2512 C.ar    1  LIG1       -0.0540
     49 H           6.8849    2.6621    6.6826 H       1  LIG1        0.0624
     50 C           5.1847    3.3397    5.8473 C.ar    1  LIG1       -0.0612
     51 H           4.6799    2.5750    6.0050 H       1  LIG1        0.0618
     52 C           4.6260    4.4103    5.2187 C.ar    1  LIG1       -0.0617
     53 H           3.7368    4.3732    4.9474 H       1  LIG1        0.0618
     54 C           5.3550    5.5337    4.9833 C.ar    1  LIG1       -0.0612
     55 H           4.9640    6.2651    4.5614 H       1  LIG1        0.0618
     56 C           6.6775    5.5858    5.3728 C.ar    1  LIG1       -0.0540
     57 H           7.1765    6.3495    5.1948 H       1  LIG1        0.0624
     58 C           8.7986    4.7772    7.9899 C.ar    1  LIG1       -0.0173
     59 C           7.7794    5.3026    8.7667 C.ar    1  LIG1       -0.0540
     60 H           6.9905    5.5762    8.3580 H       1  LIG1        0.0624
     61 C           7.9097    5.4302   10.1278 C.ar    1  LIG1       -0.0612
     62 H           7.2196    5.8073   10.6238 H       1  LIG1        0.0618
     63 C           9.0309    5.0160   10.7528 C.ar    1  LIG1       -0.0617
     64 H           9.1109    5.0914   11.6754 H       1  LIG1        0.0618
     65 C          10.0290    4.4905   10.0239 C.ar    1  LIG1       -0.0612
     66 H          10.8031    4.2025   10.4505 H       1  LIG1        0.0618
     67 C           9.9250    4.3724    8.6592 C.ar    1  LIG1       -0.0540
     68 H          10.6340    4.0100    8.1788 H       1  LIG1        0.0624
     69 N           9.5061    1.6597    4.6421 N.pl3   1  LIG1       -0.2155
     70 H           9.5145    1.8541    5.4804 H       1  LIG1        0.1737
     71 O           5.9917    4.2721    1.1843 O.3     1  LIG1       -0.4914
     72 O           5.7137    1.7478    1.5750 O.3     1  LIG1       -0.4914
     73 O           9.6793   -0.4230    3.3222 O.2     1  LIG1       -0.1500
     74 O          11.2200    0.0289    5.2051 O.2     1  LIG1       -0.1500
     75 S          10.4799    0.4885    4.0656 S.O2    1  LIG1        0.0724
@<TRIPOS>BOND
     1     4     1    1
     2     7     6    1
     3     3     1    1
     4     1     2    1
     5     1     5    1
     6    25    23    1
     7    26    23    1
     8     6     5   ar
     9     6     8   ar
    10    23    71    1
    11    23    24    1
    12     5    13   ar
    13    71    19    1
    14     9     8    1
    15    29    27    1
    16    28    27    1
    17    72    27    1
    18    72    18    1
    19     8    10   ar
    20    27    30    1
    21    19    18   ar
    22    19    20   ar
    23    18    16   ar
    24    39    37    1
    25    13    14    1
    26    13    11   ar
    27    21    20    1
    28    33    32    1
    29    20    22   ar
    30    10    11   ar
    31    10    75    1
    32    16    17    1
    33    16    15   ar
    34    38    37    1
    35    43    40    1
    36    37    40    1
    37    37    34    1
    38    73    75    2
    39    11    12    1
    40    42    40    1
    41    22    15   ar
    42    22    31    1
    43    32    34    1
    44    32    31    2
    45    40    41    1
    46    15    69    1
    47    34    36    1
    48    34    35    1
    49    75    69    1
    50    75    74    2
    51    31    44    1
    52    55    54    1
    53    69    70    1
    54    53    52    1
    55    54    52   ar
    56    54    56   ar
    57    57    56    1
    58    52    50   ar
    59    56    47   ar
    60    44    45    1
    61    44    46    2
    62    50    51    1
    63    50    48   ar
    64    47    48   ar
    65    47    46    1
    66    48    49    1
    67    46    58    1
    68    58    67   ar
    69    58    59   ar
    70    68    67    1
    71    60    59    1
    72    67    65   ar
    73    59    61   ar
    74    65    66    1
    75    65    63   ar
    76    61    62    1
    77    61    63   ar
    78    63    64    1
