@<TRIPOS>MOLECULE
anti-HH Photodimer of (R)-N-(1-phenylethyl)-2-chromonecarboxamide
 74 80 0 0 0
SMALL
GASTEIGER

@<TRIPOS>ATOM
      1 C           1.9283    9.3555   -0.6314 C.ar    1  LIG1        0.0595
      2 C           3.1893    9.4089   -0.0160 C.ar    1  LIG1        0.1327
      3 C           3.6824   15.0660    0.2845 C.ar    1  LIG1        0.1327
      4 C           2.3137   15.3377    0.1664 C.ar    1  LIG1        0.0595
      5 C           1.6307   11.8253   -0.2105 C.3     1  LIG1        0.0891
      6 H           0.9658   12.0180    0.5113 H       1  LIG1        0.0435
      7 C           4.1476   12.1889   -1.8782 C.2     1  LIG1        0.2627
      8 C           3.1292   12.3312    1.8019 C.2     1  LIG1        0.2627
      9 C           1.9662   13.1044   -1.0005 C.3     1  LIG1        0.0891
     10 H           1.7667   12.9966   -1.9751 H       1  LIG1        0.0435
     11 C           1.3699    8.1032   -0.8867 C.ar    1  LIG1       -0.0477
     12 H           0.5091    8.0487   -1.2855 H       1  LIG1        0.0626
     13 C           3.4750   12.8596   -0.6939 C.3     1  LIG1        0.2441
     14 C           3.0674   11.7786    0.3666 C.3     1  LIG1        0.2441
     15 C           3.8889    8.2442    0.2733 C.ar    1  LIG1       -0.0192
     16 H           4.7520    8.2878    0.6698 H       1  LIG1        0.0654
     17 C           2.0390    6.9519   -0.5731 C.ar    1  LIG1       -0.0609
     18 H           1.6361    6.1066   -0.7310 H       1  LIG1        0.0618
     19 C           1.3968   14.3765   -0.4607 C.2     1  LIG1        0.1750
     20 C           4.5261   15.9575    0.9096 C.ar    1  LIG1       -0.0192
     21 H           5.4528   15.7606    0.9848 H       1  LIG1        0.0654
     22 C           1.8351   16.5356    0.7025 C.ar    1  LIG1       -0.0477
     23 H           0.9084   16.7364    0.6374 H       1  LIG1        0.0626
     24 C           6.1219   11.9905   -3.3243 C.3     1  LIG1        0.0457
     25 H           5.4443   11.7046   -4.0024 H       1  LIG1        0.0545
     26 C           6.9778   13.0475   -3.9565 C.ar    1  LIG1       -0.0275
     27 C           3.3173    7.0277   -0.0198 C.ar    1  LIG1       -0.0583
     28 H           3.8008    6.2289    0.1566 H       1  LIG1        0.0619
     29 C           6.8923   10.7508   -2.8922 C.3     1  LIG1       -0.0425
     30 H           7.5822   11.0051   -2.2433 H       1  LIG1        0.0251
     31 H           7.3160   10.3398   -3.6747 H       1  LIG1        0.0251
     32 H           6.2757   10.1103   -2.4810 H       1  LIG1        0.0251
     33 C           1.2256   10.6024   -0.9976 C.2     1  LIG1        0.1750
     34 C           4.3295   12.4413    3.9401 C.3     1  LIG1        0.0457
     35 H           3.9266   13.3553    4.0006 H       1  LIG1        0.0545
     36 C           5.7910   12.5595    4.2814 C.3     1  LIG1       -0.0425
     37 H           6.2293   11.6937    4.1446 H       1  LIG1        0.0251
     38 H           5.8875   12.8289    5.2177 H       1  LIG1        0.0251
     39 H           6.2086   13.2316    3.7035 H       1  LIG1        0.0251
     40 C           3.5762   11.5430    4.8749 C.ar    1  LIG1       -0.0275
     41 C           8.1597   13.4406   -3.3555 C.ar    1  LIG1       -0.0568
     42 H           8.4381   13.0406   -2.5404 H       1  LIG1        0.0621
     43 C           2.6727   17.4278    1.3208 C.ar    1  LIG1       -0.0609
     44 H           2.3308   18.2414    1.6744 H       1  LIG1        0.0618
     45 C           3.9400   10.2216    5.1123 C.ar    1  LIG1       -0.0568
     46 H           4.7166    9.8657    4.6991 H       1  LIG1        0.0621
     47 C           2.4224   12.0015    5.5122 C.ar    1  LIG1       -0.0568
     48 H           2.1403   12.8977    5.3725 H       1  LIG1        0.0621
     49 C           1.6800   11.1796    6.3428 C.ar    1  LIG1       -0.0614
     50 H           0.8998   11.5205    6.7643 H       1  LIG1        0.0618
     51 C           4.0279   17.1336    1.4252 C.ar    1  LIG1       -0.0583
     52 H           4.6128   17.7466    1.8545 H       1  LIG1        0.0619
     53 C           2.0488    9.9096    6.5604 C.ar    1  LIG1       -0.0617
     54 H           1.5323    9.3557    7.1333 H       1  LIG1        0.0618
     55 C           6.6005   13.6357   -5.1565 C.ar    1  LIG1       -0.0568
     56 H           5.7996   13.3677   -5.5904 H       1  LIG1        0.0621
     57 C           8.9423   14.4288   -3.9538 C.ar    1  LIG1       -0.0614
     58 H           9.7420   14.7174   -3.5289 H       1  LIG1        0.0618
     59 C           3.1696    9.4121    5.9559 C.ar    1  LIG1       -0.0614
     60 H           3.4272    8.5105    6.1089 H       1  LIG1        0.0618
     61 C           8.5638   14.9909   -5.1529 C.ar    1  LIG1       -0.0617
     62 H           9.1169   15.6341   -5.5814 H       1  LIG1        0.0618
     63 C           7.3990   14.6129   -5.7092 C.ar    1  LIG1       -0.0614
     64 H           7.1170   15.0349   -6.5122 H       1  LIG1        0.0618
     65 N           5.3937   12.5560   -2.1780 N.am    1  LIG1       -0.3053
     66 H           5.7935   13.1560   -1.6744 H       1  LIG1        0.1494
     67 N           4.1778   11.9677    2.5442 N.am    1  LIG1       -0.3053
     68 H           4.7886   11.4366    2.1983 H       1  LIG1        0.1494
     69 O           4.2843   13.9292   -0.2159 O.3     1  LIG1       -0.4704
     70 O           0.1954   14.5958   -0.5641 O.2     1  LIG1       -0.2915
     71 O           3.5115   11.3428   -2.5071 O.2     1  LIG1       -0.2712
     72 O           3.8304   10.5853    0.2913 O.3     1  LIG1       -0.4704
     73 O           0.3162   10.6436   -1.8058 O.2     1  LIG1       -0.2915
     74 O           2.2587   13.1132    2.1724 O.2     1  LIG1       -0.2712
@<TRIPOS>BOND
     1    64    63    1
     2    63    55   ar
     3    63    61   ar
     4    56    55    1
     5    62    61    1
     6    55    26   ar
     7    61    57   ar
     8    25    24    1
     9    26    41   ar
    10    26    24    1
    11    57    58    1
    12    57    41   ar
    13    31    29    1
    14    41    42    1
    15    24    29    1
    16    24    65    1
    17    29    32    1
    18    29    30    1
    19    71     7    2
    20    65     7   am
    21    65    66    1
    22    10     9    1
    23     7    13    1
    24    73    33    2
    25    12    11    1
    26     9    13    1
    27     9    19    1
    28     9     5    1
    29    33     1    1
    30    33     5    1
    31    11     1   ar
    32    11    17   ar
    33    18    17    1
    34    13    69    1
    35    13    14    1
    36     1     2   ar
    37    17    27   ar
    38    70    19    2
    39    19     4    1
    40    69     3    1
    41     5    14    1
    42     5     6    1
    43    27    28    1
    44    27    15   ar
    45     2    15   ar
    46     2    72    1
    47     4     3   ar
    48     4    22   ar
    49    15    16    1
    50     3    20   ar
    51    72    14    1
    52    14     8    1
    53    23    22    1
    54    22    43   ar
    55    20    21    1
    56    20    51   ar
    57    43    51   ar
    58    43    44    1
    59    51    52    1
    60     8    74    2
    61     8    67   am
    62    68    67    1
    63    67    34    1
    64    39    36    1
    65    34    35    1
    66    34    36    1
    67    34    40    1
    68    37    36    1
    69    36    38    1
    70    46    45    1
    71    40    45   ar
    72    40    47   ar
    73    45    59   ar
    74    48    47    1
    75    47    49   ar
    76    59    60    1
    77    59    53   ar
    78    49    53   ar
    79    49    50    1
    80    53    54    1
