@<TRIPOS>MOLECULE
?
 62 65 0 0 0
SMALL
GASTEIGER

@<TRIPOS>ATOM
      1 O           1.5032   -1.5116   10.0091 O.2     1  LIG1       -0.2505
      2 O           0.5085    0.2571    9.1385 O.3     1  LIG1       -0.4490
      3 O          -0.3753   -0.4354    6.5173 O.2     1  LIG1       -0.2466
      4 O           1.2736    0.8832    5.7973 O.3     1  LIG1       -0.4614
      5 O           1.4334    8.0035   13.1893 O.2     1  LIG1       -0.1261
      6 O           1.0853    9.7284   14.4152 O.2     1  LIG1       -0.1261
      7 O          -2.8775   10.3041   16.8792 O.2     1  LIG1       -0.1261
      8 O          -4.1152    8.6122   17.3593 O.2     1  LIG1       -0.1261
      9 N          -0.1958    4.4742   13.5428 N.2     1  LIG1       -0.1870
     10 N           0.0715    5.8133   13.6282 N.pl3   1  LIG1       -0.2353
     11 N           0.7852    8.6088   14.0482 N.pl3   1  LIG1        0.0584
     12 N          -3.1418    9.1145   16.8208 N.pl3   1  LIG1        0.0565
     13 C          -1.7143   -0.6711   13.6226 C.2     1  LIG1       -0.0839
     14 H          -2.3348   -0.5880   14.3109 H       1  LIG1        0.0572
     15 C          -1.9226   -1.5865   12.7230 C.2     1  LIG1       -0.0868
     16 H          -2.6472   -2.1596   12.8346 H       1  LIG1        0.0569
     17 C          -1.0555   -1.7651   11.5215 C.3     1  LIG1       -0.0212
     18 H          -1.6037   -2.0045   10.7579 H       1  LIG1        0.0315
     19 H          -0.4258   -2.4858   11.6783 H       1  LIG1        0.0315
     20 C          -0.2927   -0.4761   11.2193 C.3     1  LIG1        0.0666
     21 H          -0.9397    0.2121   10.9575 H       1  LIG1        0.0422
     22 C           0.4553    0.0110   12.4699 C.3     1  LIG1       -0.0026
     23 H           1.1376   -0.6401   12.7390 H       1  LIG1        0.0357
     24 C           1.0634    1.3666   12.2911 C.2     1  LIG1       -0.0746
     25 H           1.8531    1.5170   11.8235 H       1  LIG1        0.0578
     26 C           0.3567    2.3341   12.8719 C.2     1  LIG1       -0.0279
     27 C          -0.8591    1.7577   13.5555 C.3     1  LIG1       -0.0194
     28 H          -1.6624    1.9214   13.0375 H       1  LIG1        0.0319
     29 H          -0.9724    2.1323   14.4429 H       1  LIG1        0.0319
     30 C          -0.5393    0.2605   13.6233 C.3     1  LIG1       -0.0118
     31 H          -0.0525    0.1079   14.4594 H       1  LIG1        0.0352
     32 C           0.6513    3.7609   12.8911 C.2     1  LIG1        0.0591
     33 C           1.8841    4.2893   12.2260 C.3     1  LIG1       -0.0206
     34 H           2.4047    4.7843   12.8627 H       1  LIG1        0.0293
     35 H           1.6337    4.8661   11.5002 H       1  LIG1        0.0293
     36 H           2.4042    3.5575   11.8878 H       1  LIG1        0.0293
     37 C           0.6767   -0.6747   10.0848 C.2     1  LIG1        0.3119
     38 C           1.4078    0.2853    8.0294 C.3     1  LIG1        0.2070
     39 H           2.0583   -0.4428    8.1039 H       1  LIG1        0.0859
     40 C           0.6361    0.1637    6.7381 C.2     1  LIG1        0.3491
     41 C           2.4250    1.5381    6.3896 C.3     1  LIG1        0.1016
     42 H           2.5431    2.4250    6.0140 H       1  LIG1        0.0704
     43 H           3.2302    1.0221    6.2301 H       1  LIG1        0.0704
     44 C           2.1316    1.6237    7.8834 C.3     1  LIG1        0.0468
     45 C           1.2048    2.7785    8.2126 C.3     1  LIG1       -0.0528
     46 H           0.9731    2.7475    9.1431 H       1  LIG1        0.0237
     47 H           0.4080    2.7103    7.6816 H       1  LIG1        0.0237
     48 H           1.6472    3.6084    8.0198 H       1  LIG1        0.0237
     49 C           3.4086    1.7267    8.7010 C.3     1  LIG1       -0.0528
     50 H           4.0068    1.0184    8.4503 H       1  LIG1        0.0237
     51 H           3.1975    1.6510    9.6346 H       1  LIG1        0.0237
     52 H           3.8278    2.5739    8.5344 H       1  LIG1        0.0237
     53 C          -0.6747    6.6027   14.4176 C.ar    1  LIG1        0.0785
     54 C          -0.3778    7.9737   14.6410 C.ar    1  LIG1        0.1507
     55 C          -1.1738    8.7747   15.4400 C.ar    1  LIG1        0.0006
     56 H          -0.9561    9.6690   15.5728 H       1  LIG1        0.0664
     57 C          -2.2839    8.2376   16.0317 C.ar    1  LIG1        0.1285
     58 C          -2.5879    6.8880   15.8774 C.ar    1  LIG1       -0.0296
     59 H          -3.3336    6.5332   16.3052 H       1  LIG1        0.0641
     60 C          -1.8089    6.0867   15.1103 C.ar    1  LIG1       -0.0348
     61 H          -2.0183    5.1849   15.0351 H       1  LIG1        0.0638
     62 H           0.7084    6.2145   13.2140 H       1  LIG1        0.1744
@<TRIPOS>BOND
     1     4    41    1
     2     4    40    1
     3    42    41    1
     4    43    41    1
     5    41    44    1
     6     3    40    2
     7    40    38    1
     8    47    45    1
     9    44    38    1
    10    44    45    1
    11    44    49    1
    12    48    45    1
    13    38    39    1
    14    38     2    1
    15    45    46    1
    16    50    49    1
    17    52    49    1
    18    49    51    1
    19     2    37    1
    20     1    37    2
    21    37    20    1
    22    18    17    1
    23    21    20    1
    24    20    17    1
    25    20    22    1
    26    35    33    1
    27    17    19    1
    28    17    15    1
    29    25    24    1
    30    36    33    1
    31    33    34    1
    32    33    32    1
    33    24    22    1
    34    24    26    2
    35    22    23    1
    36    22    30    1
    37    15    16    1
    38    15    13    2
    39    26    32    1
    40    26    27    1
    41    32     9    2
    42    28    27    1
    43     5    11    2
    44    62    10    1
    45     9    10    1
    46    27    30    1
    47    27    29    1
    48    13    30    1
    49    13    14    1
    50    30    31    1
    51    10    53    1
    52    11     6    2
    53    11    54    1
    54    53    54   ar
    55    53    60   ar
    56    54    55   ar
    57    61    60    1
    58    60    58   ar
    59    55    56    1
    60    55    57   ar
    61    58    57   ar
    62    58    59    1
    63    57    12    1
    64    12     7    2
    65    12     8    2
