@<TRIPOS>MOLECULE
(2R,3R)-dimethyl 2-cyano-3-phenyl-2-(pyridin-4-yl)cyclopropane-1,1-dicarboxylate
 41 43 0 0 0
SMALL
GASTEIGER

@<TRIPOS>ATOM
      1 C          -0.7274    1.5718    0.8932 C.ar    1  LIG1       -0.0582
      2 H           0.1554    1.7072    0.5688 H       1  LIG1        0.0620
      3 C          -1.7665    1.3524   -0.0062 C.ar    1  LIG1       -0.0615
      4 H          -1.5894    1.3257   -0.9398 H       1  LIG1        0.0618
      5 C          -3.0626    1.1733    0.4606 C.ar    1  LIG1       -0.0617
      6 H          -3.7762    1.0490   -0.1547 H       1  LIG1        0.0618
      7 C          -3.3134    1.1761    1.8248 C.ar    1  LIG1       -0.0615
      8 H          -4.1984    1.0459    2.1456 H       1  LIG1        0.0618
      9 C          -2.2676    1.3692    2.7253 C.ar    1  LIG1       -0.0582
     10 H          -2.4393    1.3467    3.6592 H       1  LIG1        0.0620
     11 C          -0.9718    1.5947    2.2662 C.ar    1  LIG1       -0.0408
     12 C           0.1909    1.7454    3.2003 C.3     1  LIG1        0.0362
     13 H           0.7301    0.9086    3.2916 H       1  LIG1        0.0385
     14 C           1.0305    3.0006    3.2810 C.3     1  LIG1        0.1948
     15 C           0.1401    2.5593    4.4769 C.3     1  LIG1        0.1171
     16 C          -1.0735    3.3162    4.7477 C.1     1  LIG1        0.0763
     17 N          -2.0530    3.8181    5.0639 N.1     1  LIG1       -0.1956
     18 C           0.8626    2.1458    5.7347 C.ar    1  LIG1       -0.0224
     19 C           0.8853    3.0067    6.8288 C.ar    1  LIG1       -0.0388
     20 H           0.3887    3.8158    6.8178 H       1  LIG1        0.0636
     21 C           1.6470    2.6608    7.9367 C.ar    1  LIG1        0.0279
     22 H           1.6507    3.2530    8.6790 H       1  LIG1        0.0829
     23 N           2.3769    1.5421    8.0193 N.ar    1  LIG1       -0.2632
     24 C           2.3261    0.7134    6.9698 C.ar    1  LIG1        0.0279
     25 H           2.8280   -0.0922    7.0124 H       1  LIG1        0.0829
     26 C           1.5821    0.9611    5.8188 C.ar    1  LIG1       -0.0388
     27 H           1.5674    0.3333    5.1063 H       1  LIG1        0.0636
     28 C           2.5157    2.7841    3.4941 C.2     1  LIG1        0.3266
     29 O           3.1261    1.8362    3.0694 O.2     1  LIG1       -0.2495
     30 O           3.0268    3.7614    4.2370 O.3     1  LIG1       -0.4671
     31 C           4.4422    3.6424    4.5336 C.3     1  LIG1        0.0817
     32 H           4.5914    2.8589    5.1029 H       1  LIG1        0.0661
     33 H           4.7474    4.4488    4.9998 H       1  LIG1        0.0661
     34 H           4.9433    3.5391    3.6975 H       1  LIG1        0.0661
     35 C           0.6674    4.2281    2.4944 C.2     1  LIG1        0.3266
     36 O          -0.4260    4.7079    2.4344 O.2     1  LIG1       -0.2495
     37 O           1.7419    4.6767    1.8539 O.3     1  LIG1       -0.4671
     38 C           1.5818    5.8827    1.0650 C.3     1  LIG1        0.0817
     39 H           1.1295    5.6655    0.2229 H       1  LIG1        0.0661
     40 H           2.4624    6.2670    0.8732 H       1  LIG1        0.0661
     41 H           1.0451    6.5322    1.5651 H       1  LIG1        0.0661
@<TRIPOS>BOND
     1     4     3    1
     2     6     5    1
     3     3     5   ar
     4     3     1   ar
     5    39    38    1
     6     5     7   ar
     7     2     1    1
     8    40    38    1
     9     1    11   ar
    10    38    41    1
    11    38    37    1
    12     7     8    1
    13     7     9   ar
    14    37    35    1
    15    11     9   ar
    16    11    12    1
    17    36    35    2
    18    35    14    1
    19     9    10    1
    20    29    28    2
    21    12    14    1
    22    12    13    1
    23    12    15    1
    24    14    28    1
    25    14    15    1
    26    28    30    1
    27    34    31    1
    28    30    31    1
    29    15    16    1
    30    15    18    1
    31    31    33    1
    32    31    32    1
    33    16    17    3
    34    27    26    1
    35    18    26   ar
    36    18    19   ar
    37    26    24   ar
    38    20    19    1
    39    19    21   ar
    40    24    25    1
    41    24    23   ar
    42    21    23   ar
    43    21    22    1
