@<TRIPOS>MOLECULE
?
 65 68 0 0 0
SMALL
GASTEIGER

@<TRIPOS>ATOM
      1 O           4.6891    3.4419    2.1235 O.3     1  LIG1       -0.3729
      2 O           3.2102    1.0853    1.8247 O.3     1  LIG1       -0.3752
      3 O           2.4359   -1.5128    3.0604 O.3     1  LIG1       -0.3729
      4 O           8.0706    5.3015    9.2624 O.2     1  LIG1       -0.2702
      5 C           5.8886    4.6837    3.7761 C.ar    1  LIG1       -0.0219
      6 C           5.8790    4.1619    2.3666 C.3     1  LIG1        0.0728
      7 H           5.9450    4.9035    1.7451 H       1  LIG1        0.0610
      8 H           6.6450    3.5831    2.2274 H       1  LIG1        0.0610
      9 O           4.8555   -0.5509   11.0401 O.2     1  LIG1       -0.2702
     10 C           4.7524    2.6742    0.9325 C.3     1  LIG1        0.0714
     11 H           5.4620    2.0158    0.9969 H       1  LIG1        0.0583
     12 H           4.9364    3.2503    0.1740 H       1  LIG1        0.0583
     13 C           5.0151    4.1918    4.7424 C.ar    1  LIG1       -0.0561
     14 H           4.4151    3.5180    4.5194 H       1  LIG1        0.0621
     15 N           5.8301    5.3358    8.8485 N.am    1  LIG1       -0.3072
     16 C           2.9486   -0.3871    7.9433 C.ar    1  LIG1       -0.0303
     17 C           6.7961    5.6704    4.1396 C.ar    1  LIG1       -0.0561
     18 H           7.3972    5.9987    3.5101 H       1  LIG1        0.0621
     19 C           4.5922    0.6014   10.7119 C.2     1  LIG1        0.2444
     20 C           3.4203   -1.0120    5.2381 C.ar    1  LIG1       -0.0219
     21 C           3.4299    1.9869    0.7478 C.3     1  LIG1        0.0711
     22 H           2.7182    2.6462    0.7209 H       1  LIG1        0.0583
     23 H           3.4257    1.5022   -0.0920 H       1  LIG1        0.0583
     24 N           3.5114    0.9351    9.9855 N.am    1  LIG1       -0.3072
     25 C           5.9258    5.7011    6.3916 C.ar    1  LIG1       -0.0303
     26 C           6.6822    3.7558   10.4469 C.ar    1  LIG1        0.0374
     27 C           7.5067    3.6274   11.5609 C.ar    1  LIG1       -0.0496
     28 H           8.1951    4.2361   11.7038 H       1  LIG1        0.0625
     29 C           4.0917    0.0262    5.8539 C.ar    1  LIG1       -0.0561
     30 H           4.7034    0.5272    5.3647 H       1  LIG1        0.0621
     31 C           1.6416   -0.3346    2.9747 C.3     1  LIG1        0.0714
     32 H           1.8022    0.2098    3.7612 H       1  LIG1        0.0583
     33 H           0.7054   -0.5878    2.9782 H       1  LIG1        0.0583
     34 C           6.3248    1.6252   12.2042 C.ar    1  LIG1       -0.0496
     35 H           6.2184    0.9080   12.7877 H       1  LIG1        0.0625
     36 C           2.5086   -1.7581    5.9988 C.ar    1  LIG1       -0.0561
     37 H           2.0554   -2.4707    5.6083 H       1  LIG1        0.0621
     38 C           3.6555   -1.3484    3.7858 C.3     1  LIG1        0.0728
     39 H           4.1768   -0.6394    3.3759 H       1  LIG1        0.0610
     40 H           4.1725   -2.1678    3.7289 H       1  LIG1        0.0610
     41 C           5.8939    6.3179    7.7743 C.3     1  LIG1        0.0371
     42 H           6.6886    6.8624    7.8929 H       1  LIG1        0.0512
     43 H           5.1236    6.9040    7.8382 H       1  LIG1        0.0512
     44 C           7.2972    2.5883   12.4570 C.ar    1  LIG1       -0.0603
     45 H           7.8089    2.5349   13.2302 H       1  LIG1        0.0618
     46 C           6.8131    6.1705    5.4358 C.ar    1  LIG1       -0.0567
     47 H           7.4280    6.8298    5.6655 H       1  LIG1        0.0621
     48 C           3.8661    0.3364    7.1988 C.ar    1  LIG1       -0.0567
     49 H           4.3353    1.0337    7.5970 H       1  LIG1        0.0621
     50 C           2.6491   -0.0751    9.3964 C.3     1  LIG1        0.0371
     51 H           1.7288    0.2243    9.4665 H       1  LIG1        0.0512
     52 H           2.7320   -0.8926    9.9114 H       1  LIG1        0.0512
     53 C           1.9192    0.4929    1.7449 C.3     1  LIG1        0.0711
     54 H           1.8692   -0.0705    0.9571 H       1  LIG1        0.0583
     55 H           1.2479    1.1874    1.6631 H       1  LIG1        0.0583
     56 C           5.5082    1.7355   11.0726 C.ar    1  LIG1        0.0374
     57 C           2.2820   -1.4425    7.3216 C.ar    1  LIG1       -0.0567
     58 H           1.6703   -1.9444    7.8108 H       1  LIG1        0.0621
     59 C           5.0290    4.6964    6.0354 C.ar    1  LIG1       -0.0567
     60 H           4.4364    4.3609    6.6673 H       1  LIG1        0.0621
     61 C           5.6779    2.8135   10.2172 C.ar    1  LIG1       -0.0375
     62 H           5.1162    2.9094    9.4814 H       1  LIG1        0.0633
     63 C           6.9280    4.8673    9.4712 C.2     1  LIG1        0.2444
     64 H           3.3299    1.7454    9.8344 H       1  LIG1        0.1493
     65 H           5.0428    5.0283    9.1259 H       1  LIG1        0.1493
@<TRIPOS>BOND
     1    23    21    1
     2    12    10    1
     3    22    21    1
     4    21    10    1
     5    21     2    1
     6    10    11    1
     7    10     1    1
     8    54    53    1
     9    55    53    1
    10    53     2    1
    11    53    31    1
    12     7     6    1
    13     1     6    1
    14     8     6    1
    15     6     5    1
    16    31    33    1
    17    31     3    1
    18    31    32    1
    19     3    38    1
    20    39    38    1
    21    18    17    1
    22    40    38    1
    23     5    17   ar
    24     5    13   ar
    25    38    20    1
    26    17    46   ar
    27    14    13    1
    28    13    59   ar
    29    20    29   ar
    30    20    36   ar
    31    30    29    1
    32    46    47    1
    33    46    25   ar
    34    37    36    1
    35    29    48   ar
    36    36    57   ar
    37    59    25   ar
    38    59    60    1
    39    25    41    1
    40    48    49    1
    41    48    16   ar
    42    57    58    1
    43    57    16   ar
    44    41    43    1
    45    41    42    1
    46    41    15    1
    47    16    50    1
    48    15    65    1
    49    15    63   am
    50     4    63    2
    51    50    51    1
    52    50    52    1
    53    50    24    1
    54    63    26    1
    55    62    61    1
    56    64    24    1
    57    24    19   am
    58    61    26   ar
    59    61    56   ar
    60    26    27   ar
    61    19     9    2
    62    19    56    1
    63    56    34   ar
    64    27    28    1
    65    27    44   ar
    66    34    44   ar
    67    34    35    1
    68    44    45    1
