@<TRIPOS>MOLECULE
C26 H23 N O6 S
 57 61 0 0 0
SMALL
GASTEIGER

@<TRIPOS>ATOM
      1 S           8.8376    3.9473    1.6575 S.O2    1  LIG1        0.0795
      2 O           8.8860    8.9274    5.8381 O.2     1  LIG1       -0.2504
      3 O           8.2513    3.7622    4.4725 O.2     1  LIG1       -0.2732
      4 O           9.2196    4.5955    0.4493 O.2     1  LIG1       -0.1496
      5 O           9.4550    2.7156    2.0170 O.2     1  LIG1       -0.1496
      6 O           8.7795    7.2727    1.8256 O.3     1  LIG1       -0.3388
      7 O           6.7098    8.8392    5.2724 O.3     1  LIG1       -0.4646
      8 N           9.1245    5.1003    2.8620 N.am    1  LIG1       -0.1329
      9 C           8.6664    4.8559    4.1718 C.2     1  LIG1        0.2457
     10 C           8.6693    6.0627    5.0881 C.3     1  LIG1        0.0778
     11 C           8.1363    7.2695    4.2811 C.3     1  LIG1        0.1024
     12 C           9.1669    7.5355    3.1889 C.3     1  LIG1        0.1273
     13 C           9.6923    6.3808    2.4650 C.3     1  LIG1        0.2119
     14 C           7.0928    3.7525    1.6687 C.ar    1  LIG1        0.1089
     15 C           6.3120    4.7710    1.1576 C.ar    1  LIG1       -0.0351
     16 C           4.9433    4.5931    1.0661 C.ar    1  LIG1       -0.0599
     17 C           4.3692    3.4264    1.5213 C.ar    1  LIG1       -0.0616
     18 C           5.1523    2.4200    2.0395 C.ar    1  LIG1       -0.0599
     19 C           6.5325    2.5714    2.1108 C.ar    1  LIG1       -0.0351
     20 C           7.9100    5.8223    6.3825 C.ar    1  LIG1       -0.0346
     21 C           8.5621    5.9978    7.5936 C.ar    1  LIG1       -0.0578
     22 C           7.8787    5.8271    8.7892 C.ar    1  LIG1       -0.0615
     23 C           6.5461    5.4898    8.7857 C.ar    1  LIG1       -0.0617
     24 C           5.8808    5.3263    7.5829 C.ar    1  LIG1       -0.0615
     25 C           6.5607    5.4970    6.3801 C.ar    1  LIG1       -0.0578
     26 C           7.9807    8.4514    5.2117 C.2     1  LIG1        0.3139
     27 C           6.3890    9.8737    6.2636 C.3     1  LIG1        0.0897
     28 C           5.0447    9.6229    6.7652 C.3     1  LIG1       -0.0306
     29 C          11.0939    6.3287    1.9516 C.ar    1  LIG1        0.0066
     30 C          11.9926    5.4169    2.4591 C.ar    1  LIG1       -0.0541
     31 C          13.3155    5.4112    2.0193 C.ar    1  LIG1       -0.0614
     32 C          13.7255    6.3247    1.0661 C.ar    1  LIG1       -0.0617
     33 C          12.8397    7.2190    0.5574 C.ar    1  LIG1       -0.0614
     34 C          11.5173    7.2438    0.9865 C.ar    1  LIG1       -0.0541
     35 H           9.6206    6.2571    5.3288 H       1  LIG1        0.0452
     36 H           7.2541    7.0409    3.8698 H       1  LIG1        0.0452
     37 H           9.7971    8.2974    3.3402 H       1  LIG1        0.0656
     38 H           6.7109    5.5844    0.8719 H       1  LIG1        0.0637
     39 H           4.4000    5.2749    0.6896 H       1  LIG1        0.0618
     40 H           3.4273    3.3161    1.4776 H       1  LIG1        0.0618
     41 H           4.7479    1.6188    2.3499 H       1  LIG1        0.0618
     42 H           7.0788    1.8752    2.4561 H       1  LIG1        0.0637
     43 H           9.4817    6.2368    7.6052 H       1  LIG1        0.0620
     44 H           8.3340    5.9445    9.6143 H       1  LIG1        0.0618
     45 H           6.0837    5.3695    9.6070 H       1  LIG1        0.0618
     46 H           4.9589    5.0971    7.5785 H       1  LIG1        0.0618
     47 H           6.1005    5.3912    5.5559 H       1  LIG1        0.0620
     48 H           7.0402    9.8437    7.0089 H       1  LIG1        0.0694
     49 H           6.4333   10.7701    5.8459 H       1  LIG1        0.0694
     50 H           4.8015   10.3177    7.4123 H       1  LIG1        0.0262
     51 H           5.0170    8.7459    7.2028 H       1  LIG1        0.0262
     52 H           4.4093    9.6351    6.0191 H       1  LIG1        0.0262
     53 H          11.7093    4.7877    3.1114 H       1  LIG1        0.0622
     54 H          13.9334    4.7819    2.3736 H       1  LIG1        0.0618
     55 H          14.6269    6.3262    0.7677 H       1  LIG1        0.0618
     56 H          13.1289    7.8383   -0.1028 H       1  LIG1        0.0618
     57 H          10.9083    7.8772    0.6264 H       1  LIG1        0.0622
@<TRIPOS>BOND
     1    56    33    1
     2     4     1    2
     3    33    34   ar
     4    33    32   ar
     5    57    34    1
     6    39    16    1
     7    55    32    1
     8    38    15    1
     9    34    29   ar
    10    32    31   ar
    11    16    15   ar
    12    16    17   ar
    13    15    14   ar
    14    40    17    1
    15    17    18   ar
    16     1    14    1
    17     1     5    2
    18     1     8    1
    19    14    19   ar
    20     6    13    1
    21     6    12    1
    22    29    30   ar
    23    29    13    1
    24    31    54    1
    25    31    30   ar
    26    18    19   ar
    27    18    41    1
    28    19    42    1
    29    30    53    1
    30    13     8    1
    31    13    12    1
    32     8     9   am
    33    12    37    1
    34    12    11    1
    35    36    11    1
    36     9     3    2
    37     9    10    1
    38    11    10    1
    39    11    26    1
    40    10    35    1
    41    10    20    1
    42    26     7    1
    43    26     2    2
    44     7    27    1
    45    47    25    1
    46    49    27    1
    47    52    28    1
    48    27    28    1
    49    27    48    1
    50    25    20   ar
    51    25    24   ar
    52    20    21   ar
    53    28    51    1
    54    28    50    1
    55    46    24    1
    56    24    23   ar
    57    21    43    1
    58    21    22   ar
    59    23    22   ar
    60    23    45    1
    61    22    44    1
