@<TRIPOS>MOLECULE
?
 36 36 0 0 0
SMALL
GASTEIGER

@<TRIPOS>ATOM
      1 C           4.2626    1.7307   12.0170 C.ar    1  LIG1       -0.0463
      2 H           3.3323    1.6747   11.8358 H       1  LIG1        0.0630
      3 C           4.7020    1.9478   13.3182 C.ar    1  LIG1       -0.0606
      4 H           4.0712    2.0324   14.0241 H       1  LIG1        0.0618
      5 C           6.0638    2.0416   13.5872 C.ar    1  LIG1       -0.0617
      6 H           6.3631    2.1978   14.4747 H       1  LIG1        0.0618
      7 C           6.9840    1.9071   12.5588 C.ar    1  LIG1       -0.0606
      8 H           7.9138    1.9669   12.7450 H       1  LIG1        0.0618
      9 C           6.5532    1.6850   11.2587 C.ar    1  LIG1       -0.0463
     10 H           7.1893    1.5941   10.5590 H       1  LIG1        0.0630
     11 C           5.1840    1.5946   10.9725 C.ar    1  LIG1        0.0250
     12 C           4.7503    1.3365    9.6231 C.1     1  LIG1       -0.0654
     13 C           4.4416    1.1043    8.4844 C.1     1  LIG1       -0.0840
     14 C           4.0736    0.7460    7.1047 C.3     1  LIG1        0.0754
     15 C           5.3135    0.3882    6.2713 C.2     1  LIG1       -0.0272
     16 C           6.5499    0.0943    6.8341 C.2     1  LIG1       -0.0748
     17 H           6.6663    0.1504    7.7749 H       1  LIG1        0.0578
     18 C           7.6185   -0.2817    6.0240 C.3     1  LIG1       -0.0087
     19 H           8.4564   -0.4974    6.4152 H       1  LIG1        0.0355
     20 C           3.3450    1.8968    6.3904 C.3     1  LIG1        0.0334
     21 C           2.8181    3.0005    7.0595 C.2     1  LIG1       -0.0743
     22 H           2.9172    3.0787    8.0008 H       1  LIG1        0.0579
     23 C           2.1456    3.9883    6.3424 C.2     1  LIG1       -0.0653
     24 H           1.7886    4.7415    6.7989 H       1  LIG1        0.0615
     25 C           3.0857   -0.5715    7.2132 C.3     1  LIG1        0.0163
     26 H           2.9753   -0.7938    8.1817 H       1  LIG1        0.0376
     27 C           3.6720   -1.7869    6.5200 C.2     1  LIG1       -0.0420
     28 C           4.3372   -2.7833    7.2296 C.2     1  LIG1       -0.0760
     29 H           4.4260   -2.7145    8.1725 H       1  LIG1        0.0578
     30 C           4.8726   -3.8804    6.5601 C.3     1  LIG1       -0.0087
     31 H           5.3397   -4.5525    7.0420 H       1  LIG1        0.0355
     32 C           1.7199   -0.3032    6.6432 C.3     1  LIG1        0.0185
     33 C           0.6379    0.0459    7.4498 C.2     1  LIG1       -0.0755
     34 H           0.7443    0.0816    8.3926 H       1  LIG1        0.0578
     35 C          -0.5931    0.3412    6.8840 C.2     1  LIG1       -0.0654
     36 H          -1.3264    0.5833    7.4384 H       1  LIG1        0.0615
@<TRIPOS>BOND
     1    18    19    1
     2    18    16    1
     3    15    16    2
     4    15    14    1
     5    23    24    1
     6    23    21    2
     7    20    21    1
     8    20    14    1
     9    27    25    1
    10    27    28    2
    11    30    31    1
    12    30    28    1
    13    32    25    1
    14    32    33    1
    15    16    17    1
    16    35    36    1
    17    35    33    2
    18    21    22    1
    19    14    25    1
    20    14    13    1
    21    25    26    1
    22    28    29    1
    23    33    34    1
    24    13    12    3
    25    12    11    1
    26    10     9    1
    27    11     9   ar
    28    11     1   ar
    29     9     7   ar
    30     2     1    1
    31     1     3   ar
    32     7     8    1
    33     7     5   ar
    34     3     5   ar
    35     3     4    1
    36     5     6    1
