@<TRIPOS>MOLECULE
?
 59 59 0 0 0
SMALL
GASTEIGER

@<TRIPOS>ATOM
      1 O           4.2242    6.0034   10.3599 O.2     1  LIG1       -0.2505
      2 O           4.8931    2.9497   14.0766 O.2     1  LIG1       -0.2753
      3 C           6.4082    6.5386    9.4862 C.3     1  LIG1        0.0539
      4 N           6.9131    2.8374   13.0821 N.am    1  LIG1       -0.2813
      5 C           3.4529    9.5548   10.9454 C.3     1  LIG1       -0.0006
      6 C           4.3539    7.5615   14.1984 C.3     1  LIG1       -0.0405
      7 C           7.5620    6.0601   10.3842 C.3     1  LIG1       -0.0369
      8 C           4.4286    8.6983   13.1692 C.3     1  LIG1       -0.0126
      9 C           8.2277    3.3798   12.8164 C.2     1  LIG1       -0.0050
     10 C           8.4436    4.1500   11.7652 C.2     1  LIG1       -0.0699
     11 C           6.0572    3.3627   13.9957 C.2     1  LIG1        0.2191
     12 C           4.0338    8.3654   11.7423 C.3     1  LIG1        0.1081
     13 C           5.1628    6.7646   10.3214 C.2     1  LIG1        0.3102
     14 O           5.2382    7.8987   11.0344 O.3     1  LIG1       -0.4606
     15 C           6.4317    1.7714   12.2134 C.3     1  LIG1        0.0077
     16 C           2.9163    7.0421   14.3448 C.3     1  LIG1       -0.0623
     17 C           6.7639    7.7640    8.6446 C.3     1  LIG1       -0.0523
     18 C           5.5602    5.5313   15.1704 C.3     1  LIG1       -0.0445
     19 C           4.3203   10.8044   11.0994 C.3     1  LIG1       -0.0567
     20 C           7.4007    4.6059   10.7967 C.3     1  LIG1       -0.0326
     21 C           2.0415    9.8434   11.4816 C.3     1  LIG1       -0.0567
     22 C           3.3554    9.1997    9.4619 C.3     1  LIG1       -0.0567
     23 C           5.3525    6.4264   13.9499 C.3     1  LIG1       -0.0499
     24 C           6.5776    4.4255   14.9305 C.3     1  LIG1        0.0245
     25 H           5.8702    6.1014   15.9239 H       1  LIG1        0.0270
     26 H           3.8530    9.4306   13.4713 H       1  LIG1        0.0304
     27 H           5.0431    5.8873   13.1784 H       1  LIG1        0.0268
     28 H           6.9394    8.5501    9.2499 H       1  LIG1        0.0238
     29 H           2.8376    6.3944   15.1032 H       1  LIG1        0.0232
     30 H           6.1997    5.8448    8.9243 H       1  LIG1        0.0411
     31 H           1.7281   10.6299   10.9859 H       1  LIG1        0.0236
     32 H           2.9049    8.2996    9.2943 H       1  LIG1        0.0236
     33 H           2.6292    6.5067   13.5194 H       1  LIG1        0.0232
     34 H           2.8645    9.8557    8.9590 H       1  LIG1        0.0236
     35 H           4.3169   11.1173   12.0359 H       1  LIG1        0.0236
     36 H           6.7376    3.9729   15.7505 H       1  LIG1        0.0358
     37 H           5.2449   10.6391   10.8606 H       1  LIG1        0.0236
     38 H           9.3466    4.4587   11.5986 H       1  LIG1        0.0584
     39 H           4.2497    9.1695    9.0014 H       1  LIG1        0.0236
     40 H           4.6128    7.9504   15.0473 H       1  LIG1        0.0299
     41 H           4.0211   11.5135   10.5119 H       1  LIG1        0.0236
     42 H           7.4370    4.0853   10.0110 H       1  LIG1        0.0308
     43 H           6.5292    4.4663   11.2190 H       1  LIG1        0.0308
     44 H           4.7204    5.1085   15.4461 H       1  LIG1        0.0270
     45 H           2.0442   10.0743   12.4347 H       1  LIG1        0.0236
     46 H           7.5177    7.5846    8.0361 H       1  LIG1        0.0238
     47 H           5.3323    9.0875   13.1842 H       1  LIG1        0.0304
     48 H           5.9711    8.0339    8.0265 H       1  LIG1        0.0238
     49 H           3.4159    7.5937   11.6795 H       1  LIG1        0.0739
     50 H           8.9096    3.1182   13.4405 H       1  LIG1        0.0781
     51 H           7.5849    6.6130   11.1997 H       1  LIG1        0.0276
     52 H           7.4101    4.8034   14.5753 H       1  LIG1        0.0358
     53 H           1.4390    9.0405   11.3539 H       1  LIG1        0.0236
     54 H           6.1392    6.8012   13.7121 H       1  LIG1        0.0268
     55 H           8.3851    6.1606    9.8684 H       1  LIG1        0.0276
     56 H           2.2862    7.7804   14.4924 H       1  LIG1        0.0232
     57 H           6.2468    0.9959   12.6871 H       1  LIG1        0.0432
     58 H           6.8587    1.7337   11.4136 H       1  LIG1        0.0432
     59 H           5.5475    2.0039   11.7854 H       1  LIG1        0.0432
@<TRIPOS>BOND
     1    48    17    1
     2    46    17    1
     3    17    28    1
     4    17     3    1
     5    30     3    1
     6    34    22    1
     7    39    22    1
     8    32    22    1
     9    22     5    1
    10     3    13    1
    11     3     7    1
    12    55     7    1
    13    42    20    1
    14    13     1    2
    15    13    14    1
    16     7    20    1
    17     7    51    1
    18    41    19    1
    19    20    43    1
    20    20    10    1
    21    37    19    1
    22     5    19    1
    23     5    21    1
    24     5    12    1
    25    31    21    1
    26    14    12    1
    27    19    35    1
    28    53    21    1
    29    58    15    1
    30    21    45    1
    31    38    10    1
    32    49    12    1
    33    12     8    1
    34    10     9    2
    35    59    15    1
    36    15    57    1
    37    15     4    1
    38     9     4    1
    39     9    50    1
    40     4    11   am
    41     8    47    1
    42     8    26    1
    43     8     6    1
    44    27    23    1
    45    33    16    1
    46    54    23    1
    47    23     6    1
    48    23    18    1
    49    11     2    2
    50    11    24    1
    51     6    16    1
    52     6    40    1
    53    16    56    1
    54    16    29    1
    55    52    24    1
    56    24    18    1
    57    24    36    1
    58    18    44    1
    59    18    25    1
