@<TRIPOS>MOLECULE
?
 102 106 0 0 0
SMALL
GASTEIGER

@<TRIPOS>ATOM
      1 S           5.4452    3.8472    5.6245 S.O2    1  LIG1        0.0451
      2 S           3.3501   -1.2603    7.3580 S.O2    2  LIG2        0.0451
      3 C           8.7444    8.7536    3.7388 C.ar    1  LIG1       -0.0617
      4 H           9.6038    9.0776    3.5974 H       1  LIG1        0.0618
      5 C           7.6794    9.3101    3.0683 C.ar    1  LIG1       -0.0612
      6 H           7.8215   10.0135    2.4757 H       1  LIG1        0.0618
      7 C           8.5346    7.7159    4.6167 C.ar    1  LIG1       -0.0612
      8 H           9.2556    7.3359    5.0654 H       1  LIG1        0.0618
      9 C           6.3984    8.8284    3.2728 C.ar    1  LIG1       -0.0539
     10 H           5.6840    9.2092    2.8141 H       1  LIG1        0.0624
     11 C           7.2522    7.2339    4.8371 C.ar    1  LIG1       -0.0539
     12 H           7.1168    6.5410    5.4428 H       1  LIG1        0.0624
     13 C           6.1677    7.7788    4.1580 C.ar    1  LIG1       -0.0127
     14 C           4.8020    7.2504    4.3686 C.ar    1  LIG1        0.0473
     15 C           4.4351    5.9450    4.4446 C.ar    1  LIG1        0.2160
     16 C           3.5900    8.0132    4.5742 C.ar    1  LIG1        0.0023
     17 C           2.6033    7.1070    4.7791 C.ar    1  LIG1        0.1391
     18 C           3.4514    9.5054    4.6157 C.3     1  LIG1       -0.0357
     19 H           2.5317    9.7373    4.7672 H       1  LIG1        0.0279
     20 H           3.7414    9.8767    3.7790 H       1  LIG1        0.0279
     21 H           3.9915    9.8569    5.3274 H       1  LIG1        0.0279
     22 C           1.1572    7.2263    5.0671 C.3     1  LIG1        0.1801
     23 H           0.9884    8.1058    5.4389 H       1  LIG1        0.0662
     24 H           0.9224    6.5730    5.7437 H       1  LIG1        0.0662
     25 C           4.0257    2.8583    5.9097 C.3     1  LIG1        0.0739
     26 H           4.1639    2.3168    6.6904 H       1  LIG1        0.0482
     27 H           3.8735    2.2905    5.1497 H       1  LIG1        0.0482
     28 H           3.2631    3.4246    6.0445 H       1  LIG1        0.0482
     29 C           5.1792    4.1134    2.9241 C.3     1  LIG1        0.0488
     30 H           5.7095    3.2928    2.9957 H       1  LIG1        0.0519
     31 C           5.8814    5.0293    1.9362 C.3     1  LIG1       -0.0325
     32 H           6.7727    5.2297    2.2617 H       1  LIG1        0.0284
     33 H           5.3918    5.8638    1.8674 H       1  LIG1        0.0284
     34 C           3.8058    3.7288    2.4032 C.3     1  LIG1       -0.0325
     35 H           3.2543    4.5231    2.3278 H       1  LIG1        0.0284
     36 H           3.3799    3.1235    3.0294 H       1  LIG1        0.0284
     37 C           5.9798    4.3839    0.5525 C.3     1  LIG1       -0.0513
     38 H           6.3688    5.0185   -0.0700 H       1  LIG1        0.0266
     39 H           6.5649    3.6118    0.5991 H       1  LIG1        0.0266
     40 C           3.9189    3.0543    1.0362 C.3     1  LIG1       -0.0513
     41 H           4.4107    2.2228    1.1257 H       1  LIG1        0.0266
     42 H           3.0316    2.8452    0.7042 H       1  LIG1        0.0266
     43 C           4.6269    3.9554    0.0480 C.3     1  LIG1       -0.0529
     44 H           4.7344    3.4859   -0.7937 H       1  LIG1        0.0265
     45 H           4.0831    4.7412   -0.1154 H       1  LIG1        0.0265
     46 C           0.0124    2.4832   10.9275 C.ar    2  LIG2       -0.0617
     47 H          -0.8529    2.6468   11.2280 H       2  LIG2        0.0618
     48 C           1.0907    2.7035   11.7598 C.ar    2  LIG2       -0.0612
     49 H           0.9528    3.0216   12.6234 H       2  LIG2        0.0618
     50 C           0.2254    2.0198    9.6466 C.ar    2  LIG2       -0.0612
     51 H          -0.4981    1.8868    9.0791 H       2  LIG2        0.0618
     52 C           1.5064    1.7516    9.1988 C.ar    2  LIG2       -0.0539
     53 H           1.6366    1.4337    8.3347 H       2  LIG2        0.0624
     54 C           2.3786    2.4524   11.3125 C.ar    2  LIG2       -0.0539
     55 H           3.1009    2.6188   11.8738 H       2  LIG2        0.0624
     56 C           2.6036    1.9549   10.0353 C.ar    2  LIG2       -0.0127
     57 C           3.9707    1.6102    9.5852 C.ar    2  LIG2        0.0473
     58 C           5.1388    2.4553    9.5877 C.ar    2  LIG2        0.0023
     59 C           4.3729    0.4231    9.0719 C.ar    2  LIG2        0.2160
     60 C           5.2406    3.8701   10.0730 C.3     2  LIG2       -0.0357
     61 H           6.1387    4.1854    9.9532 H       2  LIG2        0.0279
     62 H           5.0094    3.9069   11.0036 H       2  LIG2        0.0279
     63 H           4.6374    4.4248    9.5719 H       2  LIG2        0.0279
     64 C           6.1313    1.7233    9.0349 C.ar    2  LIG2        0.1391
     65 C           7.5617    2.0113    8.7718 C.3     2  LIG2        0.1801
     66 H           7.8430    1.5035    7.9950 H       2  LIG2        0.0662
     67 H           7.6547    2.9533    8.5578 H       2  LIG2        0.0662
     68 C           4.7002   -2.2230    6.7954 C.3     2  LIG2        0.0739
     69 H           4.5318   -2.5160    5.8967 H       2  LIG2        0.0482
     70 H           4.8088   -2.9865    7.3673 H       2  LIG2        0.0482
     71 H           5.5011   -1.6928    6.8149 H       2  LIG2        0.0482
     72 C           3.6630   -1.7986   10.0055 C.3     2  LIG2        0.0488
     73 H           3.1945   -2.5900    9.6679 H       2  LIG2        0.0519
     74 C           5.0285   -2.2421   10.4641 C.3     2  LIG2       -0.0325
     75 H           5.5233   -1.4787   10.8000 H       2  LIG2        0.0284
     76 H           5.5192   -2.6137    9.7133 H       2  LIG2        0.0284
     77 C           2.8539   -1.2502   11.1554 C.3     2  LIG2       -0.0325
     78 H           1.9651   -1.0159   10.8428 H       2  LIG2        0.0284
     79 H           3.2750   -0.4453   11.4925 H       2  LIG2        0.0284
     80 C           4.9044   -3.2959   11.5665 C.3     2  LIG2       -0.0513
     81 H           4.4755   -4.0900   11.2072 H       2  LIG2        0.0266
     82 H           5.7880   -3.5466   11.8764 H       2  LIG2        0.0266
     83 C           2.7418   -2.2812   12.2836 C.3     2  LIG2       -0.0513
     84 H           2.2815   -1.8815   13.0384 H       2  LIG2        0.0266
     85 H           2.2156   -3.0350   11.9776 H       2  LIG2        0.0266
     86 C           4.0919   -2.7655   12.7284 C.3     2  LIG2       -0.0529
     87 H           3.9790   -3.4683   13.3872 H       2  LIG2        0.0265
     88 H           4.5728   -2.0361   13.1486 H       2  LIG2        0.0265
     89 N           5.1536    4.7546    4.2735 N.pl3   1  LIG1       -0.1728
     90 N           0.2694    7.0319    3.8945 N.2     1  LIG1        0.1286
     91 N           0.7099    7.3836    2.8414 N.2     1  LIG1        0.2547
     92 N           1.0342    7.6315    1.8078 N.2     1  LIG1        0.3543
     93 N           3.7082   -0.7937    8.8920 N.pl3   2  LIG2       -0.1728
     94 N           8.4647    1.6929    9.8935 N.2     2  LIG2        0.1286
     95 N           7.9772    1.5290   10.9582 N.2     2  LIG2        0.2547
     96 N           7.5956    1.2642   11.9763 N.2     2  LIG2        0.3543
     97 O           3.0907    5.8250    4.6897 O.2     1  LIG1       -0.4417
     98 O           5.5619    4.7642    6.7140 O.2     1  LIG1       -0.1552
     99 O           6.5424    2.9900    5.3284 O.2     1  LIG1       -0.1552
    100 O           5.7002    0.4569    8.7305 O.2     2  LIG2       -0.4417
    101 O           2.2167   -2.1143    7.4233 O.2     2  LIG2       -0.1552
    102 O           3.2932   -0.0739    6.5787 O.2     2  LIG2       -0.1552
@<TRIPOS>BOND
     1    44    43    1
     2    45    43    1
     3    38    37    1
     4    43    37    1
     5    43    40    1
     6    37    39    1
     7    37    31    1
     8    42    40    1
     9    40    41    1
    10    40    34    1
    11    92    91    2
    12    33    31    1
    13    31    32    1
    14    31    29    1
    15    35    34    1
    16    34    29    1
    17    34    36    1
    18     6     5    1
    19    10     9    1
    20    91    90    2
    21    29    30    1
    22    29    89    1
    23     5     9   ar
    24     5     3   ar
    25     9    13   ar
    26     4     3    1
    27     3     7   ar
    28    20    18    1
    29    90    22    1
    30    13    14    1
    31    13    11   ar
    32    89    15    1
    33    89     1    1
    34    14    15   ar
    35    14    16   ar
    36    15    97   ar
    37    16    18    1
    38    16    17   ar
    39    18    19    1
    40    18    21    1
    41     7    11   ar
    42     7     8    1
    43    97    17   ar
    44    17    22    1
    45    11    12    1
    46    22    23    1
    47    22    24    1
    48    27    25    1
    49    99     1    2
    50     1    25    1
    51     1    98    2
    52    69    68    1
    53    25    28    1
    54    25    26    1
    55   102     2    2
    56    68    71    1
    57    68     2    1
    58    68    70    1
    59     2   101    2
    60     2    93    1
    61    66    65    1
    62    53    52    1
    63    67    65    1
    64   100    64   ar
    65   100    59   ar
    66    65    64    1
    67    65    94    1
    68    93    59    1
    69    93    72    1
    70    64    58   ar
    71    59    57   ar
    72    51    50    1
    73    52    50   ar
    74    52    56   ar
    75    63    60    1
    76    57    58   ar
    77    57    56    1
    78    58    60    1
    79    50    46   ar
    80    73    72    1
    81    76    74    1
    82    94    95    2
    83    61    60    1
    84    72    74    1
    85    72    77    1
    86    56    54   ar
    87    60    62    1
    88    74    75    1
    89    74    80    1
    90    78    77    1
    91    46    47    1
    92    46    48   ar
    93    95    96    2
    94    77    79    1
    95    77    83    1
    96    81    80    1
    97    54    48   ar
    98    54    55    1
    99    80    82    1
   100    80    86    1
   101    48    49    1
   102    85    83    1
   103    83    86    1
   104    83    84    1
   105    86    88    1
   106    86    87    1
