@<TRIPOS>MOLECULE
2e-BPh4
 184 194 0 0 0
SMALL
GASTEIGER

@<TRIPOS>ATOM
      1 O          12.1806    6.8826    5.5999 O.3     1  LIG1        0.0000
      2 O          14.0698    7.1825    6.7918 O.2     1  LIG1        0.0000
      3 O           8.6947    5.3463   15.4241 O.3     2  LIG2        0.0000
      4 O           6.4559    5.4261   15.3035 O.2     2  LIG2        0.0000
      5 N          11.2756    5.9812    8.3697 N.4     1  LIG1        1.0000
      6 N           6.5157    7.8490   17.0668 N.4     2  LIG2        1.0000
      7 C           9.6336   12.8416   10.0678 C.ar    3  LIG3        0.0000
      8 C           9.6029   13.2887   11.3981 C.ar    3  LIG3        0.0000
      9 H           9.3717   12.6829   12.0636 H       3  LIG3        0.0000
     10 C           9.9027   14.5898   11.7644 C.ar    3  LIG3        0.0000
     11 H           9.8424   14.8429   12.6581 H       3  LIG3        0.0000
     12 C          10.2855   15.5060   10.8227 C.ar    3  LIG3        0.0000
     13 H          10.5015   16.3772   11.0701 H       3  LIG3        0.0000
     14 C          10.3455   15.1167    9.5109 C.ar    3  LIG3        0.0000
     15 H          10.6175   15.7221    8.8607 H       3  LIG3        0.0000
     16 C          10.0023   13.8262    9.1476 C.ar    3  LIG3        0.0000
     17 H          10.0184   13.6032    8.2450 H       3  LIG3        0.0000
     18 C           9.9103   11.0084    8.1407 C.ar    3  LIG3        0.0000
     19 C          11.2168   10.5462    7.9568 C.ar    3  LIG3        0.0000
     20 H          11.7257   10.3453    8.7092 H       3  LIG3        0.0000
     21 C          11.7914   10.3740    6.6973 C.ar    3  LIG3        0.0000
     22 H          12.6677   10.0728    6.6225 H       3  LIG3        0.0000
     23 C          11.0635   10.6495    5.5717 C.ar    3  LIG3        0.0000
     24 H          11.4343   10.5159    4.7295 H       3  LIG3        0.0000
     25 C           9.7801   11.1262    5.6960 C.ar    3  LIG3        0.0000
     26 H           9.2807   11.3265    4.9367 H       3  LIG3        0.0000
     27 C           9.2320   11.3071    6.9576 C.ar    3  LIG3        0.0000
     28 H           8.3676   11.6452    7.0176 H       3  LIG3        0.0000
     29 C           7.6574   11.0118    9.6574 C.ar    3  LIG3        0.0000
     30 C           7.0105   10.1063    8.8051 C.ar    3  LIG3        0.0000
     31 H           7.5191    9.6788    8.1549 H       3  LIG3        0.0000
     32 C           5.6635    9.8115    8.8741 C.ar    3  LIG3        0.0000
     33 H           5.2827    9.2311    8.2546 H       3  LIG3        0.0000
     34 C           4.8891   10.3714    9.8522 C.ar    3  LIG3        0.0000
     35 H           3.9847   10.1623    9.9174 H       3  LIG3        0.0000
     36 C           5.4684   11.2424   10.7306 C.ar    3  LIG3        0.0000
     37 H           4.9521   11.6197   11.4057 H       3  LIG3        0.0000
     38 C           6.8089   11.5737   10.6359 C.ar    3  LIG3        0.0000
     39 H           7.1630   12.1883   11.2370 H       3  LIG3        0.0000
     40 C           9.9657   10.2418   10.7243 C.ar    3  LIG3        0.0000
     41 C           9.3677    9.0288   11.0862 C.ar    3  LIG3        0.0000
     42 H           8.5485    8.8041   10.7057 H       3  LIG3        0.0000
     43 C           9.9464    8.1465   11.9907 C.ar    3  LIG3        0.0000
     44 H           9.5113    7.3541   12.2074 H       3  LIG3        0.0000
     45 C          11.1583    8.4405   12.5661 C.ar    3  LIG3        0.0000
     46 H          11.5457    7.8498   13.1702 H       3  LIG3        0.0000
     47 C          11.7919    9.6179   12.2381 C.ar    3  LIG3        0.0000
     48 H          12.6151    9.8266   12.6159 H       3  LIG3        0.0000
     49 C          11.1949   10.4882   11.3413 C.ar    3  LIG3        0.0000
     50 H          11.6368   11.2810   11.1391 H       3  LIG3        0.0000
     51 C           8.9919    6.3349    7.3367 C.ar    1  LIG1        0.0000
     52 C           8.8892    7.4006    6.4633 C.ar    1  LIG1        0.0000
     53 H           9.3601    8.1874    6.6148 H       1  LIG1        0.0000
     54 C           8.0714    7.2693    5.3605 C.ar    1  LIG1        0.0000
     55 H           8.0063    7.9646    4.7468 H       1  LIG1        0.0000
     56 C           7.3492    6.1156    5.1630 C.ar    1  LIG1        0.0000
     57 H           6.7893    6.0513    4.4227 H       1  LIG1        0.0000
     58 C           7.4357    5.0617    6.0280 C.ar    1  LIG1        0.0000
     59 H           6.9533    4.2810    5.8707 H       1  LIG1        0.0000
     60 C           8.2543    5.1736    7.1422 C.ar    1  LIG1        0.0000
     61 C           8.4600    4.2029    8.2585 C.3     1  LIG1        0.0000
     62 H           9.0320    3.4695    7.9823 H       1  LIG1        0.0000
     63 H           7.6133    3.8443    8.5692 H       1  LIG1        0.0000
     64 C           9.1324    5.0497    9.3421 C.3     1  LIG1        0.0000
     65 H           8.4764    5.3644    9.9846 H       1  LIG1        0.0000
     66 H           9.8028    4.5303    9.8120 H       1  LIG1        0.0000
     67 C           9.7806    6.2300    8.6162 C.3     1  LIG1        0.0000
     68 H           9.6648    7.0476    9.1445 H       1  LIG1        0.0000
     69 C          11.5641    4.7381    7.6121 C.3     1  LIG1        0.0000
     70 H          11.0240    4.7145    6.8200 H       1  LIG1        0.0000
     71 H          12.4923    4.7204    7.3686 H       1  LIG1        0.0000
     72 H          11.3628    3.9760    8.1607 H       1  LIG1        0.0000
     73 C          12.0842    6.1252    9.6587 C.3     1  LIG1        0.0000
     74 H          11.5341    6.1439   10.4583 H       1  LIG1        0.0000
     75 H          12.7917    5.4669    9.7448 H       1  LIG1        0.0000
     76 C          12.5827    7.4911    9.2414 C.3     1  LIG1        0.0000
     77 H          13.5498    7.5634    9.2174 H       1  LIG1        0.0000
     78 H          12.1911    8.2205    9.7448 H       1  LIG1        0.0000
     79 C          11.9455    7.2804    7.8622 C.3     1  LIG1        0.0000
     80 H          11.2772    7.9713    7.6735 H       1  LIG1        0.0000
     81 C          12.8865    7.0993    6.6887 C.2     1  LIG1        0.0000
     82 C          12.8388    6.6830    4.2596 C.3     1  LIG1        0.0000
     83 C          13.6570    7.8994    3.9221 C.3     1  LIG1        0.0000
     84 H          14.4126    7.9507    4.5128 H       1  LIG1        0.0000
     85 H          13.9638    7.8375    3.0149 H       1  LIG1        0.0000
     86 H          13.1175    8.6868    4.0257 H       1  LIG1        0.0000
     87 C          13.6412    5.4034    4.3114 C.3     1  LIG1        0.0000
     88 H          14.3950    5.5214    4.8945 H       1  LIG1        0.0000
     89 H          13.0882    4.6923    4.6432 H       1  LIG1        0.0000
     90 H          13.9494    5.1829    3.4292 H       1  LIG1        0.0000
     91 C          11.6431    6.5594    3.3621 C.3     1  LIG1        0.0000
     92 H          11.1435    5.7765    3.6018 H       1  LIG1        0.0000
     93 H          11.0877    7.3364    3.4599 H       1  LIG1        0.0000
     94 H          11.9345    6.4862    2.4492 H       1  LIG1        0.0000
     95 C           6.7308   15.5695   18.8761 C.ar    4  LIG4        0.0000
     96 C           6.6654   16.9512   19.0409 C.ar    4  LIG4        0.0000
     97 H           6.6900   17.2942   19.9039 H       4  LIG4        0.0000
     98 C           6.5662   17.8395   17.9860 C.ar    4  LIG4        0.0000
     99 H           6.5222   18.7530   18.1510 H       4  LIG4        0.0000
    100 C           6.5315   17.3763   16.6953 C.ar    4  LIG4        0.0000
    101 H           6.4549   17.9672   15.9818 H       4  LIG4        0.0000
    102 C           6.6110   16.0385   16.4805 C.ar    4  LIG4        0.0000
    103 H           6.5969   15.7121   15.6098 H       4  LIG4        0.0000
    104 C           6.7132   15.1548   17.5394 C.ar    4  LIG4        0.0000
    105 H           6.7725   14.2453   17.3551 H       4  LIG4        0.0000
    106 C           6.2583   13.0510   19.8897 C.ar    4  LIG4        0.0000
    107 C           5.0850   12.8566   19.1675 C.ar    4  LIG4        0.0000
    108 H           4.7254   13.5803   18.7072 H       4  LIG4        0.0000
    109 C           4.4265   11.6344   19.1003 C.ar    4  LIG4        0.0000
    110 H           3.6384   11.5630   18.6113 H       4  LIG4        0.0000
    111 C           4.9211   10.5418   19.7428 C.ar    4  LIG4        0.0000
    112 H           4.4900    9.7206   19.6853 H       4  LIG4        0.0000
    113 C           6.0783   10.6800   20.4835 C.ar    4  LIG4        0.0000
    114 H           6.4315    9.9460   20.9338 H       4  LIG4        0.0000
    115 C           6.7145   11.9039   20.5585 C.ar    4  LIG4        0.0000
    116 H           7.4828   11.9709   21.0777 H       4  LIG4        0.0000
    117 C           6.1987   15.0664   21.5033 C.ar    4  LIG4        0.0000
    118 C           4.9845   15.7605   21.4862 C.ar    4  LIG4        0.0000
    119 H           4.6161   15.9949   20.6653 H       4  LIG4        0.0000
    120 C           4.3069   16.1150   22.6484 C.ar    4  LIG4        0.0000
    121 H           3.5075   16.5871   22.5947 H       4  LIG4        0.0000
    122 C           4.8174   15.7668   23.8682 C.ar    4  LIG4        0.0000
    123 H           4.3685   16.0019   24.6488 H       4  LIG4        0.0000
    124 C           5.9886   15.0762   23.9354 C.ar    4  LIG4        0.0000
    125 H           6.3355   14.8330   24.7620 H       4  LIG4        0.0000
    126 C           6.6680   14.7284   22.7706 C.ar    4  LIG4        0.0000
    127 H           7.4646   14.2547   22.8422 H       4  LIG4        0.0000
    128 C           8.5724   14.4504   20.3318 C.ar    4  LIG4        0.0000
    129 C           9.2765   15.4598   21.0067 C.ar    4  LIG4        0.0000
    130 H           8.7984   16.1727   21.3654 H       4  LIG4        0.0000
    131 C          10.6489   15.4404   21.1621 C.ar    4  LIG4        0.0000
    132 H          11.0644   16.1337   21.6205 H       4  LIG4        0.0000
    133 C          11.4114   14.4175   20.6538 C.ar    4  LIG4        0.0000
    134 H          12.3328   14.3952   20.7747 H       4  LIG4        0.0000
    135 C          10.7617   13.4277   19.9557 C.ar    4  LIG4        0.0000
    136 H          11.2573   12.7328   19.5875 H       4  LIG4        0.0000
    137 C           9.3828   13.4422   19.7902 C.ar    4  LIG4        0.0000
    138 H           8.9827   12.7589   19.3017 H       4  LIG4        0.0000
    139 C           6.9963   10.0704   15.9632 C.ar    2  LIG2        0.0000
    140 C           7.5414   11.0612   16.7634 C.ar    2  LIG2        0.0000
    141 H           7.2689   11.1493   17.6485 H       2  LIG2        0.0000
    142 C           8.4868   11.9125   16.2446 C.ar    2  LIG2        0.0000
    143 H           8.8545   12.5818   16.7778 H       2  LIG2        0.0000
    144 C           8.8919   11.7728   14.9289 C.ar    2  LIG2        0.0000
    145 H           9.5437   12.3421   14.5894 H       2  LIG2        0.0000
    146 C           8.3503   10.8119   14.1196 C.ar    2  LIG2        0.0000
    147 H           8.6365   10.7239   13.2392 H       2  LIG2        0.0000
    148 C           7.3793    9.9758   14.6203 C.ar    2  LIG2        0.0000
    149 C           6.5664    8.9289   13.9067 C.3     2  LIG2        0.0000
    150 H           7.1008    8.1412   13.7168 H       2  LIG2        0.0000
    151 H           6.2054    9.2738   13.0743 H       2  LIG2        0.0000
    152 C           5.4514    8.6095   14.9001 C.3     2  LIG2        0.0000
    153 H           5.2543    7.6595   14.8963 H       2  LIG2        0.0000
    154 H           4.6428    9.0938   14.6700 H       2  LIG2        0.0000
    155 C           5.9602    9.0435   16.2801 C.3     2  LIG2        0.0000
    156 H           5.2292    9.4578   16.7835 H       2  LIG2        0.0000
    157 C           5.3930    6.9576   17.5008 C.3     2  LIG2        0.0000
    158 H           4.8244    6.7700   16.7509 H       2  LIG2        0.0000
    159 H           5.7513    6.1363   17.8460 H       2  LIG2        0.0000
    160 H           4.8835    7.3966   18.1874 H       2  LIG2        0.0000
    161 C           7.4065    8.1329   18.2822 C.3     2  LIG2        0.0000
    162 H           7.7993    9.0187   18.2756 H       2  LIG2        0.0000
    163 H           6.9710    7.9546   19.1310 H       2  LIG2        0.0000
    164 C           8.3708    7.0347   17.8514 C.3     2  LIG2        0.0000
    165 H           8.2344    6.1870   18.3025 H       2  LIG2        0.0000
    166 H           9.3043    7.2976   17.8710 H       2  LIG2        0.0000
    167 C           7.7284    7.1172   16.4676 C.3     2  LIG2        0.0000
    168 H           8.2386    7.7516   15.9224 H       2  LIG2        0.0000
    169 C           7.5068    5.8606   15.6638 C.2     2  LIG2        0.0000
    170 C           8.8724    4.0882   14.6431 C.3     2  LIG2        0.0000
    171 C           8.2726    4.2463   13.2891 C.3     2  LIG2        0.0000
    172 H           8.6950    4.9794   12.8346 H       2  LIG2        0.0000
    173 H           8.4041    3.4402   12.7847 H       2  LIG2        0.0000
    174 H           7.3332    4.4211   13.3735 H       2  LIG2        0.0000
    175 C          10.3534    3.9532   14.5914 C.3     2  LIG2        0.0000
    176 H          10.7266    4.6950   14.1100 H       2  LIG2        0.0000
    177 H          10.7052    3.9439   15.4851 H       2  LIG2        0.0000
    178 H          10.5854    3.1347   14.1483 H       2  LIG2        0.0000
    179 C           8.2455    2.9602   15.3796 C.3     2  LIG2        0.0000
    180 H           7.2928    3.0783   15.3950 H       2  LIG2        0.0000
    181 H           8.4601    2.1334   14.9443 H       2  LIG2        0.0000
    182 H           8.5789    2.9426   16.2810 H       2  LIG2        0.0000
    183 B           9.2745   11.2842    9.6365 B       3  LIG3        0.0000
    184 B           6.9404   14.5324   20.1327 B       4  LIG4        0.0000
@<TRIPOS>BOND
     1    94    91    1
     2    85    83    1
     3    91    93    1
     4    91    92    1
     5    91    82    1
     6    90    87    1
     7    83    86    1
     8    83    82    1
     9    83    84    1
    10    82    87    1
    11    82     1    1
    12    87    89    1
    13    87    88    1
    14    57    56    1
    15    24    23    1
    16    55    54    1
    17    26    25    1
    18    56    54   ar
    19    56    58   ar
    20    54    52   ar
    21    23    25   ar
    22    23    21   ar
    23     1    81    1
    24    25    27   ar
    25    59    58    1
    26    58    60   ar
    27    52    53    1
    28    52    51   ar
    29    22    21    1
    30    81     2    2
    31    81    79    1
    32    21    19   ar
    33    70    69    1
    34    27    28    1
    35    27    18   ar
    36    60    51   ar
    37    60    61    1
    38    51    67    1
    39    71    69    1
    40    69    72    1
    41    69     5    1
    42    80    79    1
    43    79     5    1
    44    79    76    1
    45    19    18   ar
    46    19    20    1
    47    62    61    1
    48    18   183    1
    49    31    30    1
    50    17    16    1
    51    33    32    1
    52    61    63    1
    53    61    64    1
    54     5    67    1
    55     5    73    1
    56    67    68    1
    57    67    64    1
    58    30    32   ar
    59    30    29   ar
    60    15    14    1
    61    32    34   ar
    62    16    14   ar
    63    16     7   ar
    64    77    76    1
    65    76    73    1
    66    76    78    1
    67    64    66    1
    68    64    65    1
    69    14    12   ar
    70   183    29    1
    71   183     7    1
    72   183    40    1
    73    29    38   ar
    74    73    75    1
    75    73    74    1
    76    34    35    1
    77    34    36   ar
    78     7     8   ar
    79    38    36   ar
    80    38    39    1
    81    42    41    1
    82    40    41   ar
    83    40    49   ar
    84    36    37    1
    85    12    13    1
    86    12    10   ar
    87    41    43   ar
    88    50    49    1
    89    49    47   ar
    90     8    10   ar
    91     8     9    1
    92    10    11    1
    93    43    44    1
    94    43    45   ar
    95    47    45   ar
    96    47    48    1
    97    45    46    1
    98   173   171    1
    99   172   171    1
   100   151   149    1
   101   147   146    1
   102   171   174    1
   103   171   170    1
   104   150   149    1
   105   149   148    1
   106   149   152    1
   107   176   175    1
   108   146   148   ar
   109   146   144   ar
   110   178   175    1
   111   145   144    1
   112   175   170    1
   113   175   177    1
   114   148   139   ar
   115   170   179    1
   116   170     3    1
   117   154   152    1
   118   153   152    1
   119   152   155    1
   120   144   142   ar
   121   181   179    1
   122     4   169    2
   123   179   180    1
   124   179   182    1
   125     3   169    1
   126   103   102    1
   127   169   167    1
   128   168   167    1
   129   139   155    1
   130   139   140   ar
   131   101   100    1
   132   142   140   ar
   133   142   143    1
   134   155   156    1
   135   155     6    1
   136   167     6    1
   137   167   164    1
   138   102   100   ar
   139   102   104   ar
   140   100    98   ar
   141   158   157    1
   142   140   141    1
   143     6   157    1
   144     6   161    1
   145   105   104    1
   146   157   159    1
   147   157   160    1
   148   104    95   ar
   149   164   166    1
   150   164   161    1
   151   164   165    1
   152    98    99    1
   153    98    96   ar
   154   162   161    1
   155   161   163    1
   156   110   109    1
   157   108   107    1
   158    95    96   ar
   159    95   184    1
   160    96    97    1
   161   109   107   ar
   162   109   111   ar
   163   107   106   ar
   164   138   137    1
   165   136   135    1
   166   112   111    1
   167   111   113   ar
   168   137   135   ar
   169   137   128   ar
   170   106   184    1
   171   106   115   ar
   172   135   133   ar
   173   184   128    1
   174   184   117    1
   175   128   129   ar
   176   113   115   ar
   177   113   114    1
   178   115   116    1
   179   133   134    1
   180   133   131   ar
   181   119   118    1
   182   129   131   ar
   183   129   130    1
   184   131   132    1
   185   118   117   ar
   186   118   120   ar
   187   117   126   ar
   188   121   120    1
   189   120   122   ar
   190   126   127    1
   191   126   124   ar
   192   122   124   ar
   193   122   123    1
   194   124   125    1
