@<TRIPOS>MOLECULE
C25 H16 F N O2
 45 50 0 0 0
SMALL
GASTEIGER

@<TRIPOS>ATOM
      1 F           0.2008    2.6157    2.3926 F       1  LIG1       -0.2016
      2 O           2.0369    3.3801    4.1471 O.2     1  LIG1       -0.4187
      3 O           3.7233    2.6955    5.3997 O.2     1  LIG1       -0.2444
      4 N           4.2470    6.9883    5.8000 N.ar    1  LIG1       -0.3107
      5 C          -0.2708    4.8336    1.7358 C.ar    1  LIG1       -0.0227
      6 H          -0.9127    4.5246    1.1075 H       1  LIG1        0.0647
      7 C          -0.0114    6.1956    1.8754 C.ar    1  LIG1       -0.0582
      8 H          -0.4680    6.8208    1.3257 H       1  LIG1        0.0619
      9 C           0.9080    6.6443    2.8104 C.ar    1  LIG1       -0.0503
     10 H           1.0752    7.5749    2.8990 H       1  LIG1        0.0625
     11 C           1.5949    5.7331    3.6286 C.ar    1  LIG1        0.0299
     12 C           2.6185    6.0832    4.5862 C.ar    1  LIG1        0.0220
     13 C           3.4113    5.0522    5.1869 C.ar    1  LIG1        0.0932
     14 C           4.4462    5.6326    5.9196 C.ar    1  LIG1        0.0686
     15 C           5.6665    5.0741    6.5311 C.ar    1  LIG1       -0.0004
     16 C           5.6140    4.1015    7.5316 C.ar    1  LIG1       -0.0526
     17 H           4.7743    3.7738    7.8288 H       1  LIG1        0.0624
     18 C           6.7902    3.6110    8.0938 C.ar    1  LIG1       -0.0611
     19 H           6.7485    2.9639    8.7881 H       1  LIG1        0.0618
     20 C           8.0222    4.0649    7.6420 C.ar    1  LIG1       -0.0617
     21 H           8.8221    3.7267    8.0259 H       1  LIG1        0.0618
     22 C           0.4183    3.9489    2.5239 C.ar    1  LIG1        0.1661
     23 C           1.3625    4.3685    3.4576 C.ar    1  LIG1        0.1747
     24 C           3.1382    3.6517    4.9569 C.ar    1  LIG1        0.3472
     25 C           3.1501    7.2811    4.9989 C.ar    1  LIG1        0.0401
     26 C           8.0843    5.0157    6.6285 C.ar    1  LIG1       -0.0611
     27 H           8.9266    5.3192    6.3142 H       1  LIG1        0.0618
     28 C           6.9135    5.5215    6.0761 C.ar    1  LIG1       -0.0526
     29 H           6.9594    6.1740    5.3875 H       1  LIG1        0.0624
     30 C           4.7999    8.1788    6.3399 C.ar    1  LIG1        0.0507
     31 C           4.0954    9.2567    5.7979 C.ar    1  LIG1       -0.0150
     32 C           4.4365   10.5534    6.1531 C.ar    1  LIG1       -0.0560
     33 H           3.9850   11.2983    5.7735 H       1  LIG1        0.0621
     34 C           5.4607   10.7344    7.0823 C.ar    1  LIG1       -0.0614
     35 H           5.7129   11.6146    7.3337 H       1  LIG1        0.0618
     36 C           6.1166    9.6493    7.6463 C.ar    1  LIG1       -0.0598
     37 H           6.7934    9.8022    8.2962 H       1  LIG1        0.0618
     38 C           5.8041    8.3367    7.2800 C.ar    1  LIG1       -0.0375
     39 H           6.2577    7.5913    7.6562 H       1  LIG1        0.0638
     40 C           2.9712    8.7773    4.8878 C.3     1  LIG1        0.0246
     41 H           3.1508    9.0689    3.9478 H       1  LIG1        0.0410
     42 C           1.6028    9.3000    5.3372 C.3     1  LIG1       -0.0529
     43 H           0.9066    8.9474    4.7442 H       1  LIG1        0.0239
     44 H           1.5976   10.2794    5.2996 H       1  LIG1        0.0239
     45 H           1.4266    9.0076    6.2556 H       1  LIG1        0.0239
@<TRIPOS>BOND
     1     6     5    1
     2     8     7    1
     3     5     7   ar
     4     5    22   ar
     5     7     9   ar
     6     1    22    1
     7    22    23   ar
     8     9    10    1
     9     9    11   ar
    10    23    11   ar
    11    23     2   ar
    12    11    12   ar
    13    41    40    1
    14     2    24   ar
    15    12    25   ar
    16    12    13   ar
    17    43    42    1
    18    40    25    1
    19    40    42    1
    20    40    31    1
    21    24    13   ar
    22    24     3    2
    23    25     4   ar
    24    13    14   ar
    25    44    42    1
    26    42    45    1
    27    29    28    1
    28    33    32    1
    29    31    32   ar
    30    31    30   ar
    31     4    14   ar
    32     4    30    1
    33    14    15    1
    34    28    15   ar
    35    28    26   ar
    36    32    34   ar
    37    27    26    1
    38    30    38   ar
    39    15    16   ar
    40    26    20   ar
    41    34    35    1
    42    34    36   ar
    43    38    36   ar
    44    38    39    1
    45    16    17    1
    46    16    18   ar
    47    20    21    1
    48    20    18   ar
    49    36    37    1
    50    18    19    1
