@<TRIPOS>MOLECULE
C49 H40 O
 90 98 0 0 0
SMALL
GASTEIGER

@<TRIPOS>ATOM
      1 C           7.1630    4.2415    4.2134 C.ar    1  LIG1       -0.0119
      2 C           7.6962    3.8861    2.9763 C.ar    1  LIG1       -0.0092
      3 C           7.3250    2.6495    2.4081 C.ar    1  LIG1       -0.0358
      4 C           6.4410    1.7899    3.0922 C.ar    1  LIG1       -0.0356
      5 C           5.9152    2.1622    4.3436 C.ar    1  LIG1       -0.0064
      6 C           6.2993    3.3824    4.9026 C.ar    1  LIG1       -0.0044
      7 C           5.9394    4.0095    6.1942 C.ar    1  LIG1       -0.0123
      8 C           5.2045    3.5553    7.2890 C.ar    1  LIG1       -0.0537
      9 H           4.8151    2.6887    7.2827 H       1  LIG1        0.0624
     10 C           5.0523    4.3921    8.3888 C.ar    1  LIG1       -0.0612
     11 H           4.5630    4.0876    9.1446 H       1  LIG1        0.0618
     12 C           5.6042    5.6633    8.3993 C.ar    1  LIG1       -0.0614
     13 H           5.4649    6.2300    9.1483 H       1  LIG1        0.0618
     14 C           6.3589    6.1185    7.3252 C.ar    1  LIG1       -0.0565
     15 H           6.7446    6.9866    7.3353 H       1  LIG1        0.0621
     16 C           6.5353    5.2782    6.2414 C.ar    1  LIG1       -0.0204
     17 C           7.3985    5.5260    5.0114 C.3     1  LIG1        0.0733
     18 C           7.0571    6.8213    4.2799 C.ar    1  LIG1       -0.0204
     19 C           5.8707    7.1930    3.6860 C.ar    1  LIG1       -0.0565
     20 H           5.1142    6.6181    3.7004 H       1  LIG1        0.0621
     21 C           5.8126    8.4480    3.0573 C.ar    1  LIG1       -0.0614
     22 H           5.0073    8.7257    2.6377 H       1  LIG1        0.0618
     23 C           6.9145    9.2833    3.0439 C.ar    1  LIG1       -0.0612
     24 H           6.8546   10.1244    2.6068 H       1  LIG1        0.0618
     25 C           8.0888    8.9236    3.6479 C.ar    1  LIG1       -0.0537
     26 H           8.8364    9.5094    3.6422 H       1  LIG1        0.0624
     27 C           8.1641    7.6830    4.2686 C.ar    1  LIG1       -0.0129
     28 C           9.2786    7.0282    4.9480 C.ar    1  LIG1       -0.0129
     29 C          10.6050    7.4304    5.1476 C.ar    1  LIG1       -0.0537
     30 H          10.9035    8.2809    4.8484 H       1  LIG1        0.0624
     31 C          11.4692    6.5679    5.7883 C.ar    1  LIG1       -0.0612
     32 H          12.3737    6.8247    5.9220 H       1  LIG1        0.0618
     33 C          11.0356    5.3324    6.2385 C.ar    1  LIG1       -0.0614
     34 H          11.6462    4.7581    6.6850 H       1  LIG1        0.0618
     35 C           9.7207    4.9172    6.0476 C.ar    1  LIG1       -0.0565
     36 H           9.4260    4.0705    6.3635 H       1  LIG1        0.0621
     37 C           8.8554    5.7706    5.3860 C.ar    1  LIG1       -0.0204
     38 C           8.6622    4.8092    2.2989 C.ar    1  LIG1       -0.0173
     39 C           8.2252    5.7862    1.4128 C.ar    1  LIG1       -0.0538
     40 H           7.3038    5.8393    1.1862 H       1  LIG1        0.0624
     41 C           9.1235    6.6858    0.8543 C.ar    1  LIG1       -0.0583
     42 H           8.8072    7.3426    0.2452 H       1  LIG1        0.0620
     43 C          10.4647    6.6440    1.1652 C.ar    1  LIG1       -0.0504
     44 C          10.9089    5.6551    2.0240 C.ar    1  LIG1       -0.0583
     45 H          11.8343    5.5987    2.2344 H       1  LIG1        0.0620
     46 C          10.0218    4.7406    2.5848 C.ar    1  LIG1       -0.0538
     47 H          10.3472    4.0646    3.1681 H       1  LIG1        0.0624
     48 C          11.4273    7.6770    0.6151 C.3     1  LIG1       -0.0397
     49 H          11.1496    7.9337   -0.2888 H       1  LIG1        0.0278
     50 H          12.3301    7.2982    0.5831 H       1  LIG1        0.0278
     51 H          11.4247    8.4671    1.1953 H       1  LIG1        0.0278
     52 C           7.9257    2.2427    1.0734 C.3     1  LIG1       -0.0297
     53 H           8.1513    3.0560    0.5559 H       1  LIG1        0.0311
     54 H           7.2537    1.7303    0.5577 H       1  LIG1        0.0311
     55 C           9.1749    1.3964    1.2434 C.3     1  LIG1       -0.0612
     56 H           9.8472    1.9033    1.7457 H       1  LIG1        0.0233
     57 H           9.5344    1.1631    0.3615 H       1  LIG1        0.0233
     58 H           8.9508    0.5770    1.7330 H       1  LIG1        0.0233
     59 C           5.9844    0.4824    2.4705 C.3     1  LIG1       -0.0297
     60 H           5.8528   -0.1889    3.1863 H       1  LIG1        0.0311
     61 H           6.6919    0.1463    1.8656 H       1  LIG1        0.0311
     62 C           4.6922    0.6393    1.6889 C.3     1  LIG1       -0.0612
     63 H           3.9977    1.0042    2.2762 H       1  LIG1        0.0233
     64 H           4.4070   -0.2352    1.3497 H       1  LIG1        0.0233
     65 H           4.8378    1.2502    0.9355 H       1  LIG1        0.0233
     66 C           4.9108    1.3126    5.0570 C.ar    1  LIG1       -0.0170
     67 C           3.5595    1.6440    4.9970 C.ar    1  LIG1       -0.0534
     68 H           3.2829    2.3758    4.4597 H       1  LIG1        0.0624
     69 C           2.6102    0.9253    5.7084 C.ar    1  LIG1       -0.0535
     70 H           1.6946    1.1721    5.6514 H       1  LIG1        0.0624
     71 C           2.9835   -0.1577    6.5092 C.ar    1  LIG1       -0.0178
     72 C           4.3319   -0.4948    6.5600 C.ar    1  LIG1       -0.0535
     73 H           4.6079   -1.2305    7.0919 H       1  LIG1        0.0624
     74 C           5.2827    0.2254    5.8459 C.ar    1  LIG1       -0.0534
     75 H           6.1971   -0.0267    5.8966 H       1  LIG1        0.0624
     76 C           1.9665   -0.8878    7.3112 C.ar    1  LIG1       -0.0177
     77 C           0.6883   -1.1224    6.8187 C.ar    1  LIG1       -0.0506
     78 H           0.4813   -0.8667    5.9275 H       1  LIG1        0.0625
     79 C          -0.2945   -1.7212    7.5975 C.ar    1  LIG1       -0.0194
     80 H          -1.1595   -1.8811    7.2372 H       1  LIG1        0.0654
     81 C          -0.0025   -2.0841    8.9039 C.ar    1  LIG1        0.1201
     82 C           1.2775   -1.8893    9.4062 C.ar    1  LIG1       -0.0194
     83 H           1.4859   -2.1581   10.2927 H       1  LIG1        0.0654
     84 C           2.2483   -1.3052    8.6151 C.ar    1  LIG1       -0.0506
     85 H           3.1237   -1.1854    8.9648 H       1  LIG1        0.0625
     86 C          -2.1854   -2.9511    9.2802 C.3     1  LIG1        0.0788
     87 H          -2.6157   -2.1256    8.9739 H       1  LIG1        0.0660
     88 H          -2.7247   -3.3562    9.9912 H       1  LIG1        0.0660
     89 H          -2.1100   -3.5777    8.5306 H       1  LIG1        0.0660
     90 O          -0.8912   -2.6525    9.7792 O.3     1  LIG1       -0.4951
@<TRIPOS>BOND
     1    49    48    1
     2    42    41    1
     3    57    55    1
     4    53    52    1
     5    54    52    1
     6    50    48    1
     7    48    43    1
     8    48    51    1
     9    41    43   ar
    10    41    39   ar
    11    65    62    1
    12    52    55    1
    13    52     3    1
    14    43    44   ar
    15    40    39    1
    16    55    58    1
    17    55    56    1
    18    64    62    1
    19    39    38   ar
    20    62    63    1
    21    62    59    1
    22    61    59    1
    23    44    45    1
    24    44    46   ar
    25    38    46   ar
    26    38     2    1
    27     3     2   ar
    28     3     4   ar
    29    59     4    1
    30    59    60    1
    31    46    47    1
    32    24    23    1
    33    22    21    1
    34     2     1   ar
    35    23    21   ar
    36    23    25   ar
    37    21    19   ar
    38     4     5   ar
    39    26    25    1
    40    25    27   ar
    41    19    20    1
    42    19    18   ar
    43     1     6   ar
    44     1    17    1
    45    27    18   ar
    46    27    28    1
    47    18    17    1
    48     5     6   ar
    49     5    66    1
    50    68    67    1
    51    30    29    1
    52     6     7    1
    53    28    29   ar
    54    28    37   ar
    55    67    66   ar
    56    67    69   ar
    57    17    37    1
    58    17    16    1
    59    66    74   ar
    60    29    31   ar
    61    37    35   ar
    62    70    69    1
    63    69    71   ar
    64    31    32    1
    65    31    33   ar
    66    74    75    1
    67    74    72   ar
    68    78    77    1
    69    35    33   ar
    70    35    36    1
    71     7    16   ar
    72     7     8   ar
    73    33    34    1
    74    16    14   ar
    75    71    72   ar
    76    71    76    1
    77    72    73    1
    78    77    76   ar
    79    77    79   ar
    80    80    79    1
    81     9     8    1
    82     8    10   ar
    83    76    84   ar
    84    14    15    1
    85    14    12   ar
    86    79    81   ar
    87    10    12   ar
    88    10    11    1
    89    12    13    1
    90    89    86    1
    91    84    85    1
    92    84    82   ar
    93    81    82   ar
    94    81    90    1
    95    87    86    1
    96    86    90    1
    97    86    88    1
    98    82    83    1
