@<TRIPOS>MOLECULE
C20  H22  O4  S2
 48 48 0 0 0
SMALL
GASTEIGER

@<TRIPOS>ATOM
      1 S           3.0128    9.5502    0.7985 S.3     1  LIG1       -0.0961
      2 S           5.6120    9.3227   -0.8535 S.3     1  LIG1       -0.0961
      3 O          -0.6454   10.8285    6.3741 O.2     1  LIG1       -0.2456
      4 O          -2.3909    9.4762    6.0029 O.3     1  LIG1       -0.4618
      5 O           9.5243   10.5326   -6.2528 O.2     1  LIG1       -0.2456
      6 O          11.2080    9.0991   -5.8831 O.3     1  LIG1       -0.4618
      7 C           3.8718   11.0374    0.3762 C.ar    1  LIG1        0.0259
      8 C           5.0546   10.9314   -0.3658 C.ar    1  LIG1        0.0259
      9 C           5.7724   12.0774   -0.6758 C.ar    1  LIG1       -0.0469
     10 H           6.5914   12.0048   -1.1525 H       1  LIG1        0.0629
     11 C           5.3091   13.3197   -0.3014 C.ar    1  LIG1       -0.0606
     12 H           5.8071   14.0983   -0.5197 H       1  LIG1        0.0618
     13 C           4.1204   13.4304    0.3908 C.ar    1  LIG1       -0.0606
     14 H           3.7924   14.2883    0.6350 H       1  LIG1        0.0618
     15 C           3.4062   12.2975    0.7295 C.ar    1  LIG1       -0.0469
     16 H           2.5894   12.3803    1.2090 H       1  LIG1        0.0629
     17 C           2.2296   10.0188    2.2852 C.2     1  LIG1       -0.0238
     18 H           2.6469   10.6760    2.8290 H       1  LIG1        0.0693
     19 C           1.0711    9.4979    2.6936 C.2     1  LIG1       -0.0550
     20 H           0.6197    8.8706    2.1419 H       1  LIG1        0.0623
     21 C           0.4942    9.8737    3.9617 C.2     1  LIG1       -0.0545
     22 H           1.0023   10.4584    4.5121 H       1  LIG1        0.0620
     23 C          -0.6862    9.4734    4.4275 C.2     1  LIG1        0.0225
     24 H          -1.1961    8.8384    3.9380 H       1  LIG1        0.0689
     25 C          -1.2057   10.0066    5.6933 C.2     1  LIG1        0.3319
     26 C          -3.0073    9.9577    7.2248 C.3     1  LIG1        0.0900
     27 H          -3.4534   10.8262    7.0584 H       1  LIG1        0.0695
     28 H          -2.3176   10.0890    7.9217 H       1  LIG1        0.0695
     29 C          -3.9963    8.9621    7.6764 C.3     1  LIG1       -0.0306
     30 H          -4.6382    8.7894    6.9562 H       1  LIG1        0.0262
     31 H          -4.4713    9.3059    8.4610 H       1  LIG1        0.0262
     32 H          -3.5372    8.1289    7.9130 H       1  LIG1        0.0262
     33 C           6.4996    9.7342   -2.3037 C.2     1  LIG1       -0.0238
     34 H           6.1508   10.4216   -2.8573 H       1  LIG1        0.0693
     35 C           7.6348    9.1445   -2.6807 C.2     1  LIG1       -0.0550
     36 H           8.0212    8.4676   -2.1375 H       1  LIG1        0.0623
     37 C           8.2774    9.5321   -3.9130 C.2     1  LIG1       -0.0545
     38 H           7.8195   10.1641   -4.4556 H       1  LIG1        0.0620
     39 C           9.4504    9.0910   -4.3651 C.2     1  LIG1        0.0225
     40 H           9.9134    8.4063   -3.8967 H       1  LIG1        0.0689
     41 C          10.0289    9.6630   -5.5911 C.2     1  LIG1        0.3319
     42 C          11.8963    9.6360   -7.0402 C.3     1  LIG1        0.0900
     43 H          12.3370   10.4906   -6.8040 H       1  LIG1        0.0695
     44 H          11.2483    9.8101   -7.7673 H       1  LIG1        0.0695
     45 C          12.9145    8.6463   -7.4909 C.3     1  LIG1       -0.0306
     46 H          13.5034    8.4185   -6.7410 H       1  LIG1        0.0262
     47 H          13.4461    9.0331   -8.2174 H       1  LIG1        0.0262
     48 H          12.4646    7.8361   -7.8108 H       1  LIG1        0.0262
@<TRIPOS>BOND
     1    47    45    1
     2    48    45    1
     3    44    42    1
     4    45    42    1
     5    45    46    1
     6    42    43    1
     7    42     6    1
     8     5    41    2
     9     6    41    1
    10    41    39    1
    11    38    37    1
    12    39    37    2
    13    39    40    1
    14    37    35    1
    15    34    33    1
    16    35    33    2
    17    35    36    1
    18    33     2    1
    19    10     9    1
    20     2     8    1
    21     9     8   ar
    22     9    11   ar
    23    12    11    1
    24     8     7   ar
    25    11    13   ar
    26     7    15   ar
    27     7     1    1
    28    13    14    1
    29    13    15   ar
    30    15    16    1
    31     1    17    1
    32    20    19    1
    33    17    19    2
    34    17    18    1
    35    19    21    1
    36    24    23    1
    37    21    23    2
    38    21    22    1
    39    23    25    1
    40    25     4    1
    41    25     3    2
    42     4    26    1
    43    30    29    1
    44    27    26    1
    45    26    29    1
    46    26    28    1
    47    29    32    1
    48    29    31    1
