@<TRIPOS>MOLECULE
?
 78 76 0 0 0
SMALL
GASTEIGER

@<TRIPOS>ATOM
      1 S           8.9167    5.2923    2.4494 S.3     1  LIG1        0.0321
      2 S           7.1284    9.7944    4.2663 S.3     2  LIG2        0.0321
      3 F           5.9928   13.8361    3.8310 F       2  LIG2       -0.1686
      4 F           4.8685   12.0334    3.4979 F       2  LIG2       -0.1686
      5 O           9.1279    4.8908    3.8741 O.3     1  LIG1       -0.1455
      6 F           9.6397    8.8128    0.1653 F       1  LIG1       -0.1686
      7 F           9.6770    6.7429   -0.4279 F       1  LIG1       -0.1686
      8 F           5.2997   13.3409    1.8479 F       2  LIG2       -0.1686
      9 O           8.3501    8.9733    4.0167 O.3     2  LIG2       -0.1455
     10 F          11.4827    7.8924   -0.4745 F       1  LIG1       -0.1686
     11 N           9.3084    6.8805    2.2245 N.3     1  LIG1       -0.2333
     12 C          11.1701    8.4502    2.5295 C.3     1  LIG1       -0.0168
     13 C           7.0810    5.3712    2.2463 C.3     1  LIG1        0.0399
     14 N           7.4344   11.3901    4.0056 N.3     2  LIG2       -0.2333
     15 C          10.6352    7.2569    1.6911 C.3     1  LIG1        0.1247
     16 C           6.4548    6.3035    3.2660 C.3     1  LIG1       -0.0484
     17 H           6.6871    7.2102    3.0557 H       1  LIG1        0.0244
     18 H           6.7806    6.0855    4.1427 H       1  LIG1        0.0244
     19 H           5.4997    6.2052    3.2457 H       1  LIG1        0.0244
     20 C           8.2949   10.0371    6.7641 C.3     2  LIG2       -0.0484
     21 H           8.6129   10.9131    6.5351 H       2  LIG2        0.0244
     22 H           8.9222    9.3786    6.4553 H       2  LIG2        0.0244
     23 H           8.2020    9.9688    7.7171 H       2  LIG2        0.0244
     24 C           5.9196   10.8632    6.4855 C.3     2  LIG2       -0.0484
     25 H           5.7048   10.7799    7.4169 H       2  LIG2        0.0244
     26 H           5.1242   10.7428    5.9612 H       2  LIG2        0.0244
     27 H           6.2853   11.7343    6.3185 H       2  LIG2        0.0244
     28 C           9.5719   12.1917    2.0888 C.3     2  LIG2       -0.0513
     29 H           9.5817   11.3937    2.6395 H       2  LIG2        0.0266
     30 H           9.5409   11.9096    1.1611 H       2  LIG2        0.0266
     31 C           5.8271   12.8227    2.9723 C.3     2  LIG2        0.4084
     32 C          11.4944    8.0064    3.9608 C.3     1  LIG1       -0.0513
     33 H          10.7954    7.4125    4.2757 H       1  LIG1        0.0266
     34 H          12.3275    7.5103    3.9583 H       1  LIG1        0.0266
     35 C           6.9448    9.7995    6.1043 C.3     2  LIG2        0.0399
     36 C          12.3724    9.1692    1.9071 C.3     1  LIG1       -0.0604
     37 H          12.6749    9.8609    2.5008 H       1  LIG1        0.0233
     38 H          12.1134    9.5591    1.0680 H       1  LIG1        0.0233
     39 H          13.0822    8.5389    1.7616 H       1  LIG1        0.0233
     40 C           6.8605   11.0382    1.6008 C.3     2  LIG2       -0.0373
     41 H           7.6069   10.4393    1.5240 H       2  LIG2        0.0251
     42 H           6.7416   11.5083    0.7734 H       2  LIG2        0.0251
     43 H           6.0667   10.5371    1.8015 H       2  LIG2        0.0251
     44 C          10.3601    7.6904    0.2379 C.3     1  LIG1        0.4084
     45 C           8.0360   14.0172    1.2909 C.3     2  LIG2       -0.0604
     46 H           8.8333   14.5232    1.1155 H       2  LIG2        0.0233
     47 H           7.3339   14.6109    1.5658 H       2  LIG2        0.0233
     48 H           7.7702   13.5537    0.4941 H       2  LIG2        0.0233
     49 C           6.4232    8.4025    6.4240 C.3     2  LIG2       -0.0484
     50 H           7.0690    7.7481    6.1456 H       2  LIG2        0.0244
     51 H           5.5977    8.2539    5.9574 H       2  LIG2        0.0244
     52 H           6.2753    8.3248    7.3694 H       2  LIG2        0.0244
     53 C           7.1255   12.0433    2.7254 C.3     2  LIG2        0.1247
     54 C          11.6175    6.0892    1.6563 C.3     1  LIG1       -0.0373
     55 H          11.6943    5.7095    2.5350 H       1  LIG1        0.0251
     56 H          12.4772    6.4025    1.3682 H       1  LIG1        0.0251
     57 H          11.2988    5.4211    1.0452 H       1  LIG1        0.0251
     58 C           6.6343    3.9287    2.4903 C.3     1  LIG1       -0.0484
     59 H           6.8214    3.6843    3.3996 H       1  LIG1        0.0244
     60 H           7.1098    3.3420    1.8984 H       1  LIG1        0.0244
     61 H           5.6911    3.8530    2.3279 H       1  LIG1        0.0244
     62 C           8.3112   13.0016    2.4062 C.3     2  LIG2       -0.0168
     63 C           6.7945    5.7901    0.8126 C.3     1  LIG1       -0.0484
     64 H           5.8553    5.6994    0.6347 H       1  LIG1        0.0244
     65 H           7.2895    5.2289    0.2109 H       1  LIG1        0.0244
     66 H           7.0572    6.7043    0.6879 H       1  LIG1        0.0244
     67 C          10.8563   12.9723    2.3263 C.3     2  LIG2       -0.0650
     68 H          10.8417   13.7779    1.8053 H       2  LIG2        0.0230
     69 H          11.6091   12.4357    2.0656 H       2  LIG2        0.0230
     70 H          10.9287   13.1945    3.2571 H       2  LIG2        0.0230
     71 C          11.6181    9.1856    4.9244 C.3     1  LIG1       -0.0650
     72 H          12.3520    9.7429    4.6557 H       1  LIG1        0.0230
     73 H          11.7742    8.8576    5.8130 H       1  LIG1        0.0230
     74 H          10.8054    9.6973    4.9104 H       1  LIG1        0.0230
     75 H           8.4542   13.5183    3.2647 H       2  LIG2        0.0319
     76 H          10.4289    9.0583    2.5863 H       1  LIG1        0.0319
     77 H           8.9930    7.4311    2.8029 H       1  LIG1        0.1373
     78 H           7.9462   11.7899    4.4771 H       2  LIG2        0.1373
@<TRIPOS>BOND
     1    10    44    1
     2     7    44    1
     3     6    44    1
     4    65    63    1
     5    44    15    1
     6    48    45    1
     7    64    63    1
     8    66    63    1
     9    42    40    1
    10    63    13    1
    11    57    54    1
    12    38    36    1
    13    46    45    1
    14    30    28    1
    15    45    47    1
    16    45    62    1
    17    56    54    1
    18    41    40    1
    19    40    43    1
    20    40    53    1
    21    54    15    1
    22    54    55    1
    23    15    11    1
    24    15    12    1
    25    39    36    1
    26    68    67    1
    27     8    31    1
    28    60    58    1
    29    36    37    1
    30    36    12    1
    31    69    67    1
    32    28    67    1
    33    28    62    1
    34    28    29    1
    35    11     1    1
    36    11    77    1
    37    13     1    1
    38    13    58    1
    39    13    16    1
    40    67    70    1
    41    61    58    1
    42    62    53    1
    43    62    75    1
    44     1     5    1
    45    58    59    1
    46    12    76    1
    47    12    32    1
    48    53    31    1
    49    53    14    1
    50    31     4    1
    51    31     3    1
    52    17    16    1
    53    19    16    1
    54    16    18    1
    55    34    32    1
    56    32    33    1
    57    32    71    1
    58    14     2    1
    59    14    78    1
    60     9     2    1
    61     2    35    1
    62    72    71    1
    63    74    71    1
    64    71    73    1
    65    51    49    1
    66    26    24    1
    67    35    49    1
    68    35    24    1
    69    35    20    1
    70    50    49    1
    71    27    24    1
    72    49    52    1
    73    22    20    1
    74    24    25    1
    75    21    20    1
    76    20    23    1
