@<TRIPOS>MOLECULE
C14 H10 B1 Cl1 O2
 56 60 0 0 0
SMALL
GASTEIGER

@<TRIPOS>ATOM
      1 CL          5.4325   12.0228    2.7717 Cl      1  LIG1        0.0000
      2 CL          2.8618    4.1583    7.0195 Cl      2  LIG2        0.0000
      3 O           4.4945    8.2965    1.8136 O.2     1  LIG1        0.0000
      4 O           4.3106    3.8325    3.3584 O.2     2  LIG2        0.0000
      5 O           4.1709    7.0914   -0.1807 O.3     1  LIG1        0.0000
      6 H           4.0270    6.5160    0.3853 H       1  LIG1        0.0000
      7 O           3.8521    4.7481    1.2540 O.3     2  LIG2        0.0000
      8 H           4.5756    4.3836    1.1293 H       2  LIG2        0.0000
      9 C           4.8279    9.4311    2.5222 C.2     1  LIG1        0.0000
     10 C           5.0313    2.6843    5.2836 C.ar    2  LIG2        0.0000
     11 C           5.0762   10.5833    1.8656 C.2     1  LIG1        0.0000
     12 C           4.6212    1.6114    6.0658 C.ar    2  LIG2        0.0000
     13 H           3.7205    1.5060    6.2745 H       2  LIG2        0.0000
     14 C           4.0648    3.6328    4.6943 C.2     2  LIG2        0.0000
     15 C           2.0563    5.0713    4.5624 C.ar    2  LIG2        0.0000
     16 C           3.0413    4.2781    5.2876 C.2     2  LIG2        0.0000
     17 C           4.5563    9.6710   -1.7271 C.ar    1  LIG1        0.0000
     18 H           4.3450    8.9132   -2.2225 H       1  LIG1        0.0000
     19 C           4.6725    9.5782   -0.3355 C.ar    1  LIG1        0.0000
     20 C           2.2036    5.1768    3.1612 C.ar    2  LIG2        0.0000
     21 C           4.9990   10.7220    0.4129 C.ar    1  LIG1        0.0000
     22 C           6.3854    2.8110    4.9682 C.ar    2  LIG2        0.0000
     23 H           6.6688    3.5059    4.4184 H       2  LIG2        0.0000
     24 C           4.8261    9.1566    3.9761 C.ar    1  LIG1        0.0000
     25 C           3.8236    8.3370    4.5000 C.ar    1  LIG1        0.0000
     26 H           3.1560    8.0090    3.9423 H       1  LIG1        0.0000
     27 C           5.5509    0.6985    6.5352 C.ar    2  LIG2        0.0000
     28 H           5.2696   -0.0223    7.0513 H       2  LIG2        0.0000
     29 C           0.9611    5.6891    5.1870 C.ar    2  LIG2        0.0000
     30 H           0.8798    5.6637    6.1131 H       2  LIG2        0.0000
     31 C           6.8927    0.8486    6.2441 C.ar    2  LIG2        0.0000
     32 H           7.5141    0.2381    6.5689 H       2  LIG2        0.0000
     33 C           5.8268    9.6182    4.8313 C.ar    1  LIG1        0.0000
     34 H           6.5064   10.1589    4.4983 H       1  LIG1        0.0000
     35 C           1.2094    5.8304    2.4236 C.ar    2  LIG2        0.0000
     36 H           1.2887    5.8880    1.4989 H       2  LIG2        0.0000
     37 C           3.8169    8.0097    5.8489 C.ar    1  LIG1        0.0000
     38 H           3.1407    7.4698    6.1899 H       1  LIG1        0.0000
     39 C           5.8119    9.2764    6.1706 C.ar    1  LIG1        0.0000
     40 H           6.4867    9.5869    6.7302 H       1  LIG1        0.0000
     41 C           7.3037    1.9121    5.4669 C.ar    2  LIG2        0.0000
     42 H           8.2076    2.0239    5.2783 H       2  LIG2        0.0000
     43 C           4.7528   10.8774   -2.3718 C.ar    1  LIG1        0.0000
     44 H           4.6630   10.9367   -3.2954 H       1  LIG1        0.0000
     45 C           4.8079    8.4790    6.6889 C.ar    1  LIG1        0.0000
     46 H           4.7998    8.2612    7.5933 H       1  LIG1        0.0000
     47 C           5.2098   11.9414   -0.2545 C.ar    1  LIG1        0.0000
     48 H           5.4323   12.7062    0.2255 H       1  LIG1        0.0000
     49 B           4.4181    8.2831    0.4356 B       1  LIG1        0.0000
     50 C           5.0845   11.9963   -1.6294 C.ar    1  LIG1        0.0000
     51 H           5.2262   12.8050   -2.0659 H       1  LIG1        0.0000
     52 C           0.0048    6.3348    4.4286 C.ar    2  LIG2        0.0000
     53 H          -0.7203    6.7369    4.8492 H       2  LIG2        0.0000
     54 C           0.1134    6.3902    3.0483 C.ar    2  LIG2        0.0000
     55 H          -0.5505    6.8033    2.5452 H       2  LIG2        0.0000
     56 B           3.4745    4.5747    2.5507 B       2  LIG2        0.0000
@<TRIPOS>BOND
     1    44    43    1
     2    43    17   ar
     3    43    50   ar
     4    18    17    1
     5    51    50    1
     6    17    19   ar
     7    50    47   ar
     8    19    21   ar
     9    19    49    1
    10    47    48    1
    11    47    21   ar
    12     5     6    1
    13     5    49    1
    14    21    11    1
    15    49     3    1
    16     8     7    1
    17     7    56    1
    18    36    35    1
    19     3     9    1
    20    11     9    2
    21    11     1    1
    22    35    54   ar
    23    35    20   ar
    24     9    24    1
    25    55    54    1
    26    56    20    1
    27    56     4    1
    28    54    52   ar
    29    20    15   ar
    30     4    14    1
    31    26    25    1
    32    24    25   ar
    33    24    33   ar
    34    23    22    1
    35    52    53    1
    36    52    29   ar
    37    34    33    1
    38    25    37   ar
    39    15    29   ar
    40    15    16    1
    41    14    10    1
    42    14    16    2
    43    33    39   ar
    44    22    10   ar
    45    22    41   ar
    46    29    30    1
    47    42    41    1
    48    10    12   ar
    49    16     2    1
    50    41    31   ar
    51    37    38    1
    52    37    45   ar
    53    12    13    1
    54    12    27   ar
    55    39    45   ar
    56    39    40    1
    57    31    27   ar
    58    31    32    1
    59    27    28    1
    60    45    46    1
