@<TRIPOS>MOLECULE
(S)-1-(5-Chlorobenzofuran-2-yl)-2-nitroethanol
 24 25 0 0 0
SMALL
GASTEIGER

@<TRIPOS>ATOM
      1 CL          7.8023    6.6010   31.2316 Cl      1  LIG1       -0.0835
      2 O           3.2970    4.0654   28.5608 O.2     1  LIG1       -0.4570
      3 O           1.6705    5.8157   25.8763 O.3     1  LIG1       -0.3821
      4 O           0.8519    2.7888   24.0653 O.2     1  LIG1       -0.1316
      5 O          -0.1756    2.9487   25.9511 O.2     1  LIG1       -0.1316
      6 C           3.0731    4.9988   27.5776 C.ar    1  LIG1        0.1366
      7 C           3.9428    6.0196   27.6187 C.ar    1  LIG1       -0.0102
      8 H           3.9772    6.7498   27.0453 H       1  LIG1        0.0659
      9 C           4.8152    5.7521   28.7398 C.ar    1  LIG1        0.0219
     10 C           5.8972    6.4103   29.3307 C.ar    1  LIG1       -0.0326
     11 H           6.2178    7.2166   28.9967 H       1  LIG1        0.0639
     12 C           6.4696    5.8079   30.4359 C.ar    1  LIG1        0.0418
     13 C           6.0283    4.5810   30.9459 C.ar    1  LIG1       -0.0399
     14 H           6.4579    4.2026   31.6796 H       1  LIG1        0.0633
     15 C           4.9553    3.9295   30.3640 C.ar    1  LIG1       -0.0174
     16 H           4.6374    3.1199   30.6925 H       1  LIG1        0.0655
     17 C           4.3823    4.5410   29.2737 C.ar    1  LIG1        0.1354
     18 C           1.8844    4.7003   26.7184 C.3     1  LIG1        0.1366
     19 H           1.0992    4.5815   27.2944 H       1  LIG1        0.0695
     20 N           0.8319    3.0241   25.2637 N.pl3   1  LIG1        0.0254
     21 C           2.1089    3.4278   25.9239 C.3     1  LIG1        0.1321
     22 H           2.7936    3.5759   25.2524 H       1  LIG1        0.0589
     23 H           2.4112    2.7201   26.5145 H       1  LIG1        0.0589
     24 H           0.9058    5.7150   25.5469 H       1  LIG1        0.2104
@<TRIPOS>BOND
     1     4    20    2
     2    22    21    1
     3    20    21    1
     4    20     5    2
     5    24     3    1
     6     3    18    1
     7    21    23    1
     8    21    18    1
     9    18    19    1
    10    18     6    1
    11     8     7    1
    12     6     7   ar
    13     6     2   ar
    14     7     9   ar
    15     2    17   ar
    16     9    17   ar
    17     9    10   ar
    18    11    10    1
    19    17    15   ar
    20    10    12   ar
    21    15    16    1
    22    15    13   ar
    23    12    13   ar
    24    12     1    1
    25    13    14    1
