@<TRIPOS>MOLECULE
?
 47 50 0 0 0
SMALL
GASTEIGER

@<TRIPOS>ATOM
      1 O           4.4943    1.5333    0.9551 O.2     1  LIG1       -0.2742
      2 O           6.1523    2.9063    3.3458 O.3     1  LIG1       -0.4647
      3 O           5.7269    4.3719    1.6893 O.2     1  LIG1       -0.2505
      4 N           3.1727    0.1534    2.2540 N.am    1  LIG1       -0.2666
      5 C           3.0863    2.4034    2.7437 C.3     1  LIG1        0.0950
      6 C           3.9427    3.6153    3.1060 C.3     1  LIG1        0.0830
      7 H           3.7813    4.0024    3.9917 H       1  LIG1        0.0433
      8 C           2.8484    3.7864    2.1156 C.3     1  LIG1        0.0172
      9 H           3.1770    3.8461    1.1944 H       1  LIG1        0.0371
     10 C           2.1928    1.6733    3.6692 C.ar    1  LIG1       -0.0096
     11 C           1.3871    2.0632    4.7218 C.ar    1  LIG1       -0.0558
     12 H           1.3111    2.9615    4.9517 H       1  LIG1        0.0621
     13 C           0.6902    1.0882    5.4344 C.ar    1  LIG1       -0.0614
     14 H           0.1366    1.3382    6.1389 H       1  LIG1        0.0618
     15 C           0.8163   -0.2499    5.1000 C.ar    1  LIG1       -0.0600
     16 H           0.3551   -0.8881    5.5956 H       1  LIG1        0.0618
     17 C           1.6173   -0.6632    4.0404 C.ar    1  LIG1       -0.0400
     18 H           1.6966   -1.5615    3.8144 H       1  LIG1        0.0636
     19 C           2.2882    0.3164    3.3406 C.ar    1  LIG1        0.0408
     20 C           3.6921    1.3536    1.8586 C.2     1  LIG1        0.2321
     21 C           3.5578   -1.1136    1.6613 C.3     1  LIG1        0.0377
     22 H           3.7393   -1.7487    2.3722 H       1  LIG1        0.0512
     23 H           4.3803   -0.9877    1.1633 H       1  LIG1        0.0512
     24 C           2.5298   -1.6975    0.7484 C.2     1  LIG1       -0.0736
     25 H           2.7450   -2.5045    0.3401 H       1  LIG1        0.0582
     26 C           1.3572   -1.1896    0.4632 C.2     1  LIG1       -0.1011
     27 H           1.0944   -0.3831    0.8450 H       1  LIG1        0.0532
     28 H           0.7874   -1.6353   -0.1213 H       1  LIG1        0.0532
     29 C           5.3597    3.6893    2.6069 C.2     1  LIG1        0.3122
     30 C           7.5477    2.7789    2.9426 C.3     1  LIG1        0.0897
     31 H           8.1052    3.3600    3.4836 H       1  LIG1        0.0694
     32 H           7.6508    3.0336    2.0124 H       1  LIG1        0.0694
     33 C           7.9552    1.3555    3.1316 C.3     1  LIG1       -0.0306
     34 H           7.8425    1.1097    4.0528 H       1  LIG1        0.0262
     35 H           8.8765    1.2506    2.8833 H       1  LIG1        0.0262
     36 H           7.4094    0.7902    2.5806 H       1  LIG1        0.0262
     37 C           1.6116    4.5858    2.3376 C.ar    1  LIG1       -0.0421
     38 C           1.4486    5.4236    3.4325 C.ar    1  LIG1       -0.0582
     39 H           2.1013    5.4523    4.0943 H       1  LIG1        0.0620
     40 C           0.3141    6.2198    3.5461 C.ar    1  LIG1       -0.0615
     41 H           0.2122    6.7784    4.2820 H       1  LIG1        0.0618
     42 C          -0.6641    6.1839    2.5685 C.ar    1  LIG1       -0.0617
     43 H          -1.4199    6.7200    2.6459 H       1  LIG1        0.0618
     44 C          -0.5164    5.3473    1.4759 C.ar    1  LIG1       -0.0615
     45 H          -1.1751    5.3183    0.8201 H       1  LIG1        0.0618
     46 C           0.6136    4.5540    1.3614 C.ar    1  LIG1       -0.0582
     47 H           0.7088    3.9939    0.6252 H       1  LIG1        0.0620
@<TRIPOS>BOND
     1    28    26    1
     2    25    24    1
     3    26    24    2
     4    26    27    1
     5    47    46    1
     6    24    21    1
     7    45    44    1
     8     1    20    2
     9    23    21    1
    10     9     8    1
    11    46    44   ar
    12    46    37   ar
    13    44    42   ar
    14    21     4    1
    15    21    22    1
    16     3    29    2
    17    20     4   am
    18    20     5    1
    19    32    30    1
    20     8    37    1
    21     8     5    1
    22     8     6    1
    23     4    19    1
    24    37    38   ar
    25    42    43    1
    26    42    40   ar
    27    36    33    1
    28    29     6    1
    29    29     2    1
    30     5     6    1
    31     5    10    1
    32    35    33    1
    33    30    33    1
    34    30     2    1
    35    30    31    1
    36     6     7    1
    37    33    34    1
    38    19    10   ar
    39    19    17   ar
    40    38    40   ar
    41    38    39    1
    42    40    41    1
    43    10    11   ar
    44    18    17    1
    45    17    15   ar
    46    11    12    1
    47    11    13   ar
    48    15    13   ar
    49    15    16    1
    50    13    14    1
