@<TRIPOS>MOLECULE
?
 64 66 0 0 0
SMALL
GASTEIGER

@<TRIPOS>ATOM
      1 BR         -0.7771    0.0185   10.6934 Br      1  LIG1       -0.0503
      2 O           1.3764  -14.6435   11.2433 O.2     1  LIG1       -0.1261
      3 O           2.8396  -15.4178   12.6364 O.2     1  LIG1       -0.1261
      4 O           5.4722  -12.4035   15.1701 O.2     1  LIG1       -0.1261
      5 O           5.0919  -10.3068   15.2453 O.2     1  LIG1       -0.1261
      6 O           5.4191   -3.5044   15.4451 O.3     1  LIG1       -0.4630
      7 O           5.6521   -5.5382   16.3504 O.2     1  LIG1       -0.2477
      8 O           5.5111   -5.8009   12.7116 O.2     1  LIG1       -0.2477
      9 O           4.5617   -3.7821   12.7050 O.3     1  LIG1       -0.4630
     10 O           3.0152   -4.1629   16.8080 O.2     1  LIG1       -0.2755
     11 N           2.2314  -14.5017   12.1195 N.pl3   1  LIG1        0.0565
     12 N           4.8296  -11.4341   14.8345 N.pl3   1  LIG1        0.0584
     13 N           2.8359   -4.4284   14.5875 N.am    1  LIG1       -0.2448
     14 N           3.2048   -9.2491   13.7964 N.pl3   1  LIG1       -0.2353
     15 H           3.7698   -9.0729   14.4209 H       1  LIG1        0.1744
     16 N           2.4841   -8.2404   13.2002 N.2     1  LIG1       -0.1869
     17 C           3.7442  -11.6259   13.8999 C.ar    1  LIG1        0.1507
     18 C           3.4955  -12.9204   13.4917 C.ar    1  LIG1        0.0006
     19 H           3.9912  -13.6286   13.8328 H       1  LIG1        0.0664
     20 C           2.5071  -13.1399   12.5760 C.ar    1  LIG1        0.1285
     21 C           1.7783  -12.0923   12.0322 C.ar    1  LIG1       -0.0296
     22 H           1.1165  -12.2638   11.4011 H       1  LIG1        0.0641
     23 C           2.0293  -10.8177   12.4229 C.ar    1  LIG1       -0.0348
     24 H           1.5407  -10.1216   12.0456 H       1  LIG1        0.0638
     25 C           3.0096  -10.5253   13.3816 C.ar    1  LIG1        0.0786
     26 C           4.0826   -5.2043   14.5431 C.3     1  LIG1        0.2408
     27 C           3.7491   -6.6823   14.6720 C.3     1  LIG1        0.0342
     28 H           4.5506   -7.2148   14.5525 H       1  LIG1        0.0361
     29 H           3.3909   -6.8645   15.5555 H       1  LIG1        0.0361
     30 C           2.7284   -7.0445   13.6193 C.2     1  LIG1        0.0642
     31 C           1.9754   -5.9790   12.9922 C.2     1  LIG1       -0.0168
     32 H           1.4672   -6.1725   12.2376 H       1  LIG1        0.0655
     33 C           1.9852   -4.7214   13.4595 C.2     1  LIG1        0.0468
     34 C           1.3021   -3.5841   12.8190 C.ar    1  LIG1       -0.0034
     35 C           0.1429   -3.7776   12.0644 C.ar    1  LIG1       -0.0518
     36 H          -0.2227   -4.6304   11.9919 H       1  LIG1        0.0624
     37 C          -0.4655   -2.7206   11.4266 C.ar    1  LIG1       -0.0471
     38 H          -1.2360   -2.8556   10.9244 H       1  LIG1        0.0629
     39 C           0.0768   -1.4579   11.5394 C.ar    1  LIG1        0.0179
     40 C           1.2133   -1.2381   12.2699 C.ar    1  LIG1       -0.0471
     41 H           1.5791   -0.3844   12.3289 H       1  LIG1        0.0629
     42 C           1.8067   -2.2994   12.9157 C.ar    1  LIG1       -0.0518
     43 H           2.5663   -2.1486   13.4313 H       1  LIG1        0.0624
     44 C           4.7995   -4.9756   13.2004 C.2     1  LIG1        0.3430
     45 C           5.2221   -3.4408   11.4562 C.3     1  LIG1        0.0897
     46 H           6.1715   -3.6330   11.5139 H       1  LIG1        0.0694
     47 H           4.8475   -3.9577   10.7244 H       1  LIG1        0.0694
     48 C           5.0098   -2.0440   11.2386 C.3     1  LIG1       -0.0306
     49 H           5.4257   -1.7813   10.4142 H       1  LIG1        0.0262
     50 H           5.3932   -1.5463   11.9637 H       1  LIG1        0.0262
     51 H           4.0678   -1.8667   11.1916 H       1  LIG1        0.0262
     52 C           5.1172   -4.7770   15.6106 C.2     1  LIG1        0.3430
     53 C           6.4770   -2.9517   16.2591 C.3     1  LIG1        0.0897
     54 H           6.1408   -2.7125   17.1372 H       1  LIG1        0.0694
     55 H           7.1948   -3.5946   16.3652 H       1  LIG1        0.0694
     56 C           6.9473   -1.7791   15.5622 C.3     1  LIG1       -0.0306
     57 H           7.6456   -1.3626   16.0725 H       1  LIG1        0.0262
     58 H           6.2219   -1.1597   15.4494 H       1  LIG1        0.0262
     59 H           7.2879   -2.0333   14.7015 H       1  LIG1        0.0262
     60 C           2.3209   -4.0625   15.8200 C.2     1  LIG1        0.2180
     61 C           0.9231   -3.5600   15.9060 C.3     1  LIG1        0.0127
     62 H           0.7135   -3.3532   16.8204 H       1  LIG1        0.0323
     63 H           0.3200   -4.2332   15.5837 H       1  LIG1        0.0323
     64 H           0.8341   -2.7680   15.3702 H       1  LIG1        0.0323
@<TRIPOS>BOND
     1    49    48    1
     2     1    39    1
     3    47    45    1
     4    38    37    1
     5    51    48    1
     6    48    45    1
     7    48    50    1
     8     2    11    2
     9    22    21    1
    10    37    39   ar
    11    37    35   ar
    12    45    46    1
    13    45     9    1
    14    39    40   ar
    15    36    35    1
    16    21    23   ar
    17    21    20   ar
    18    24    23    1
    19    35    34   ar
    20    11    20    1
    21    11     3    2
    22    32    31    1
    23    40    41    1
    24    40    42   ar
    25    23    25   ar
    26    20    18   ar
    27     9    44    1
    28     8    44    2
    29    34    42   ar
    30    34    33    1
    31    42    43    1
    32    31    33    2
    33    31    30    1
    34    16    30    2
    35    16    14    1
    36    44    26    1
    37    25    14    1
    38    25    17   ar
    39    33    13    1
    40    18    19    1
    41    18    17   ar
    42    30    27    1
    43    14    15    1
    44    17    12    1
    45    26    13    1
    46    26    27    1
    47    26    52    1
    48    28    27    1
    49    13    60   am
    50    27    29    1
    51    59    56    1
    52    12     4    2
    53    12     5    2
    54    64    61    1
    55     6    52    1
    56     6    53    1
    57    58    56    1
    58    56    57    1
    59    56    53    1
    60    63    61    1
    61    52     7    2
    62    60    61    1
    63    60    10    2
    64    61    62    1
    65    53    55    1
    66    53    54    1
