@<TRIPOS>MOLECULE
C17 H26 N2 O5 S
 51 54 0 0 0
SMALL
GASTEIGER

@<TRIPOS>ATOM
      1 S           2.1507    8.2194    7.5303 S.O2    1  LIG1       -0.0307
      2 O           1.2455    8.5260    6.4381 O.2     1  LIG1       -0.1743
      3 O           2.5447    9.2977    8.3977 O.2     1  LIG1       -0.1743
      4 C           1.4573    6.9031    8.4600 C.3     1  LIG1        0.0698
      5 H           2.0609    6.6659    9.1817 H       1  LIG1        0.0501
      6 H           0.6191    7.1921    8.8518 H       1  LIG1        0.0501
      7 C           1.2111    5.6808    7.5823 C.3     1  LIG1        0.0128
      8 H           0.6067    5.9263    6.8647 H       1  LIG1        0.0324
      9 H           0.7753    4.9960    8.1138 H       1  LIG1        0.0324
     10 C           2.4862    5.0986    6.9771 C.3     1  LIG1        0.1540
     11 C           3.1946    6.1635    6.1048 C.3     1  LIG1        0.0128
     12 H           4.0024    5.7740    5.7353 H       1  LIG1        0.0324
     13 H           2.6141    6.3924    5.3618 H       1  LIG1        0.0324
     14 C           3.5647    7.4449    6.8490 C.3     1  LIG1        0.0698
     15 H           4.0022    8.0571    6.2363 H       1  LIG1        0.0501
     16 H           4.1891    7.2346    7.5602 H       1  LIG1        0.0501
     17 C           2.1272    3.8825    6.0892 C.3     1  LIG1        0.0532
     18 H           1.7441    4.2254    5.2556 H       1  LIG1        0.0388
     19 C           3.3337    2.9740    5.7172 C.3     1  LIG1        0.1659
     20 H           3.5052    3.0310    4.7535 H       1  LIG1        0.0846
     21 N           4.5244    3.4409    6.4653 N.4     1  LIG1       -0.1067
     22 C           4.2929    3.8587    7.7832 C.2     1  LIG1        0.3357
     23 N           3.3528    4.6832    8.1015 N.pl3   1  LIG1       -0.0431
     24 O           5.5148    2.3896    6.5363 O.3     1  LIG1       -0.1772
     25 C           5.9092    2.3152    7.8432 C.3     1  LIG1        0.1864
     26 C           5.2547    3.1853    8.6059 C.2     1  LIG1        0.0487
     27 H           5.3957    3.3324    9.5138 H       1  LIG1        0.0685
     28 C           6.9076    1.2399    8.1059 C.3     1  LIG1        0.0029
     29 C           6.2126   -0.0994    7.8051 C.3     1  LIG1       -0.0569
     30 H           5.4565   -0.2051    8.3866 H       1  LIG1        0.0236
     31 H           6.8299   -0.8204    7.9505 H       1  LIG1        0.0236
     32 H           5.9175   -0.1098    6.8916 H       1  LIG1        0.0236
     33 C           8.1301    1.4192    7.1946 C.3     1  LIG1       -0.0569
     34 H           7.8537    1.3788    6.2754 H       1  LIG1        0.0236
     35 H           8.7644    0.7210    7.3690 H       1  LIG1        0.0236
     36 H           8.5371    2.2717    7.3690 H       1  LIG1        0.0236
     37 C           7.3413    1.2721    9.5730 C.3     1  LIG1       -0.0569
     38 H           7.7723    2.1091    9.7609 H       1  LIG1        0.0236
     39 H           7.9538    0.5521    9.7419 H       1  LIG1        0.0236
     40 H           6.5699    1.1757   10.1366 H       1  LIG1        0.0236
     41 C           1.1136    2.8994    6.7026 C.3     1  LIG1       -0.0133
     42 H           1.2339    2.8352    7.6631 H       1  LIG1        0.0296
     43 H           0.2041    3.1843    6.5192 H       1  LIG1        0.0296
     44 C           1.4078    1.5694    6.0316 C.3     1  LIG1        0.0857
     45 H           1.0031    0.8183    6.5136 H       1  LIG1        0.0620
     46 C           2.9253    1.5300    6.0890 C.3     1  LIG1        0.1245
     47 H           3.1742    1.3922    7.0269 H       1  LIG1        0.0663
     48 O           1.0347    1.5847    4.6580 O.3     1  LIG1       -0.3891
     49 H           0.2182    1.6232    4.5970 H       1  LIG1        0.2099
     50 O           3.5486    0.5142    5.3422 O.3     1  LIG1       -0.3849
     51 H           3.3576    0.6008    4.5500 H       1  LIG1        0.2101
@<TRIPOS>BOND
     1    51    50    1
     2    49    48    1
     3    48    44    1
     4    20    19    1
     5    18    17    1
     6    50    46    1
     7    13    11    1
     8    19    46    1
     9    19    17    1
    10    19    21    1
    11    12    11    1
    12    44    46    1
    13    44    45    1
    14    44    41    1
    15    46    47    1
    16    17    41    1
    17    17    10    1
    18    11    14    1
    19    11    10    1
    20    15    14    1
    21    34    33    1
    22     2     1    2
    23    21    24    1
    24    21    22    1
    25    43    41    1
    26    24    25    1
    27    41    42    1
    28    14     1    1
    29    14    16    1
    30     8     7    1
    31    32    29    1
    32    10     7    1
    33    10    23    1
    34    33    36    1
    35    33    35    1
    36    33    28    1
    37     1     3    2
    38     1     4    1
    39     7     9    1
    40     7     4    1
    41    22    23    1
    42    22    26    2
    43    29    31    1
    44    29    28    1
    45    29    30    1
    46    25    28    1
    47    25    26    1
    48    28    37    1
    49     4     6    1
    50     4     5    1
    51    26    27    1
    52    37    39    1
    53    37    38    1
    54    37    40    1
