@<TRIPOS>MOLECULE
C31 H24 N2 O2
 59 64 0 0 0
SMALL
GASTEIGER

@<TRIPOS>ATOM
      1 O           0.2429   12.3344   15.5668 O.2     1  LIG1       -0.2721
      2 O          -0.5918   10.0027   12.1625 O.2     1  LIG1       -0.2923
      3 N           2.3642   12.0873   16.4590 N.am    1  LIG1       -0.1598
      4 N           3.5209   11.3248   16.1759 N.2     1  LIG1       -0.1805
      5 C           0.8174    9.2179   16.8068 C.ar    1  LIG1       -0.0345
      6 C           0.9709    9.3101   15.2992 C.3     1  LIG1        0.0151
      7 H           1.4580    8.5131   15.0025 H       1  LIG1        0.0370
      8 C           1.7577    8.4756   17.5951 C.ar    1  LIG1       -0.0144
      9 C           1.3264   11.7857   15.6192 C.2     1  LIG1        0.2561
     10 C          -0.3242    9.3877   14.4839 C.3     1  LIG1        0.0186
     11 H          -0.6933    8.5023   14.3404 H       1  LIG1        0.0351
     12 H          -0.9848    9.9307   14.9418 H       1  LIG1        0.0351
     13 C           1.7954   10.5899   14.8003 C.3     1  LIG1        0.1234
     14 C           1.6467    8.5207   19.0161 C.ar    1  LIG1       -0.0176
     15 C           3.2416   10.5202   15.2202 C.2     1  LIG1        0.0545
     16 C          -0.1895    9.8997   17.4488 C.ar    1  LIG1       -0.0577
     17 H          -0.8175   10.3595   16.9407 H       1  LIG1        0.0621
     18 C           1.4055   10.6674   13.3361 C.2     1  LIG1        0.0167
     19 C           0.0703   10.0178   13.1777 C.2     1  LIG1        0.1613
     20 C           2.7955    7.6828   17.0482 C.ar    1  LIG1       -0.0538
     21 H           2.8702    7.6092   16.1235 H       1  LIG1        0.0624
     22 C           2.0880   11.0812   12.2639 C.2     1  LIG1       -0.0467
     23 H           1.6549   10.9811   11.4468 H       1  LIG1        0.0628
     24 C           2.4224   13.0441   17.4993 C.ar    1  LIG1        0.0600
     25 C           3.4275   11.6720   12.2009 C.ar    1  LIG1       -0.0246
     26 C          -0.2980    9.9227   18.8523 C.ar    1  LIG1       -0.0609
     27 H          -0.9897   10.3965   19.2560 H       1  LIG1        0.0618
     28 C           3.6888    7.0241   17.8436 C.ar    1  LIG1       -0.0612
     29 H           4.3697    6.5233   17.4562 H       1  LIG1        0.0618
     30 C           0.6029    9.2563   19.6177 C.ar    1  LIG1       -0.0540
     31 H           0.5313    9.2844   20.5447 H       1  LIG1        0.0624
     32 C           2.5912    7.8230   19.8080 C.ar    1  LIG1       -0.0540
     33 H           2.5276    7.8622   20.7353 H       1  LIG1        0.0624
     34 C           4.2894    9.6202   14.6583 C.3     1  LIG1       -0.0234
     35 H           4.6653   10.0186   13.8690 H       1  LIG1        0.0290
     36 H           3.8969    8.7738   14.4326 H       1  LIG1        0.0290
     37 H           4.9808    9.4880   15.3105 H       1  LIG1        0.0290
     38 C           3.5861    7.0989   19.2378 C.ar    1  LIG1       -0.0612
     39 H           4.2013    6.6513   19.7736 H       1  LIG1        0.0618
     40 C           3.8456   12.6745   13.0568 C.ar    1  LIG1       -0.0546
     41 H           3.2552   13.0265   13.6825 H       1  LIG1        0.0623
     42 C           1.2631   13.5977   18.0265 C.ar    1  LIG1       -0.0384
     43 H           0.4309   13.3396   17.7034 H       1  LIG1        0.0637
     44 C           4.3225   11.1900   11.2425 C.ar    1  LIG1       -0.0546
     45 H           4.0410   10.5523   10.6254 H       1  LIG1        0.0623
     46 C           3.6536   13.4114   18.0185 C.ar    1  LIG1       -0.0384
     47 H           4.4337   13.0311   17.6866 H       1  LIG1        0.0637
     48 C           5.1447   13.1548   12.9841 C.ar    1  LIG1       -0.0612
     49 H           5.4196   13.8379   13.5526 H       1  LIG1        0.0618
     50 C           2.5788   14.9225   19.5406 C.ar    1  LIG1       -0.0616
     51 H           2.6325   15.5624   20.2136 H       1  LIG1        0.0618
     52 C           3.7142   14.3470   19.0346 C.ar    1  LIG1       -0.0599
     53 H           4.5417   14.5906   19.3818 H       1  LIG1        0.0618
     54 C           1.3569   14.5388   19.0386 C.ar    1  LIG1       -0.0599
     55 H           0.5814   14.9176   19.3839 H       1  LIG1        0.0618
     56 C           6.0311   12.6242   12.0712 C.ar    1  LIG1       -0.0617
     57 H           6.9103   12.9278   12.0439 H       1  LIG1        0.0618
     58 C           5.6137   11.6483   11.2027 C.ar    1  LIG1       -0.0612
     59 H           6.2105   11.2958   10.5835 H       1  LIG1        0.0618
@<TRIPOS>BOND
     1    59    58    1
     2    45    44    1
     3    58    44   ar
     4    58    56   ar
     5    44    25   ar
     6    23    22    1
     7    57    56    1
     8    56    48   ar
     9     2    19    2
    10    25    22    1
    11    25    40   ar
    12    22    18    2
    13    48    40   ar
    14    48    49    1
    15    40    41    1
    16    19    18    1
    17    19    10    1
    18    18    13    1
    19    35    34    1
    20    11    10    1
    21    36    34    1
    22    10    12    1
    23    10     6    1
    24    34    15    1
    25    34    37    1
    26    13    15    1
    27    13     6    1
    28    13     9    1
    29     7     6    1
    30    15     4    2
    31     6     5    1
    32     1     9    2
    33     9     3   am
    34    21    20    1
    35     4     3    1
    36     3    24    1
    37     5    16   ar
    38     5     8   ar
    39    17    16    1
    40    20     8   ar
    41    20    28   ar
    42    16    26   ar
    43    29    28    1
    44    24    46   ar
    45    24    42   ar
    46     8    14   ar
    47    47    46    1
    48    43    42    1
    49    28    38   ar
    50    46    52   ar
    51    42    54   ar
    52    26    27    1
    53    26    30   ar
    54    14    30   ar
    55    14    32   ar
    56    52    53    1
    57    52    50   ar
    58    54    55    1
    59    54    50   ar
    60    38    39    1
    61    38    32   ar
    62    50    51    1
    63    30    31    1
    64    32    33    1
