@<TRIPOS>MOLECULE
7156018.cif
 58 60 0 0 0
SMALL
GASTEIGER

@<TRIPOS>ATOM
      1 S           2.2241    5.3177    1.6416 S.O2    1  LIG1        0.0721
      2 P           5.3890    8.0315    3.5518 P.3     1  LIG1        0.3654
      3 O           6.5455    8.9139    2.9462 O.3     1  LIG1       -0.3039
      4 O           5.3342    8.4619    5.0634 O.3     1  LIG1       -0.3039
      5 O           1.4390    5.6589    0.4998 O.2     1  LIG1       -0.1500
      6 O           3.0757    4.1678    1.6028 O.2     1  LIG1       -0.1500
      7 N           3.2565    6.5311    1.9840 N.pl3   1  LIG1       -0.2197
      8 O           5.5802    6.5919    3.3543 O.2     1  LIG1       -0.2530
      9 C           3.6864   10.1430    2.9963 C.ar    1  LIG1       -0.0087
     10 C           2.9835    7.8806    2.2269 C.2     1  LIG1        0.0378
     11 C           3.8878    8.6655    2.8476 C.2     1  LIG1        0.0887
     12 C           4.1035   11.0165    2.0049 C.ar    1  LIG1       -0.0535
     13 H           4.4899   10.6782    1.2308 H       1  LIG1        0.0624
     14 C          -0.1982    5.3787    2.8964 C.ar    1  LIG1       -0.0348
     15 H          -0.5598    5.6298    2.0770 H       1  LIG1        0.0637
     16 C           3.1088   10.6927    4.1284 C.ar    1  LIG1       -0.0535
     17 H           2.8135   10.1311    4.8083 H       1  LIG1        0.0624
     18 C           1.6819    8.3985    1.7167 C.3     1  LIG1       -0.0244
     19 H           0.9615    7.9320    2.1467 H       1  LIG1        0.0290
     20 H           1.6321    8.2598    0.7683 H       1  LIG1        0.0290
     21 H           1.6145    9.3368    1.9061 H       1  LIG1        0.0290
     22 C           1.1480    5.1673    3.0219 C.ar    1  LIG1        0.1085
     23 C           3.9554   12.3791    2.1479 C.ar    1  LIG1       -0.0583
     24 H           4.2508   12.9394    1.4668 H       1  LIG1        0.0620
     25 C           3.3794   12.9354    3.2718 C.ar    1  LIG1       -0.0504
     26 C           2.9656   12.0606    4.2655 C.ar    1  LIG1       -0.0583
     27 H           2.5826   12.4028    5.0408 H       1  LIG1        0.0620
     28 C          -1.0130    5.2162    3.9901 C.ar    1  LIG1       -0.0570
     29 H          -1.9264    5.3669    3.9017 H       1  LIG1        0.0621
     30 C           1.6819    4.7933    4.2458 C.ar    1  LIG1       -0.0348
     31 H           2.5972    4.6532    4.3318 H       1  LIG1        0.0637
     32 C          -0.5077    4.8343    5.2186 C.ar    1  LIG1       -0.0503
     33 C           0.8604    4.6334    5.3209 C.ar    1  LIG1       -0.0570
     34 H           1.2251    4.3849    6.1403 H       1  LIG1        0.0621
     35 C           7.5095    9.5707    5.0907 C.3     1  LIG1        0.0128
     36 C          -1.4052    4.6360    6.4053 C.3     1  LIG1       -0.0397
     37 H          -2.1959    5.1713    6.3030 H       1  LIG1        0.0278
     38 H          -0.9433    4.8977    7.2049 H       1  LIG1        0.0278
     39 H          -1.6525    3.7096    6.4680 H       1  LIG1        0.0278
     40 C           6.4844    8.7117    5.8079 C.3     1  LIG1        0.0645
     41 H           6.8961    7.8646    6.0403 H       1  LIG1        0.0571
     42 H           6.2306    9.1531    6.6331 H       1  LIG1        0.0571
     43 C           3.1377   14.4261    3.4159 C.3     1  LIG1       -0.0397
     44 H           3.5688   14.8913    2.6953 H       1  LIG1        0.0278
     45 H           3.4984   14.7288    4.2527 H       1  LIG1        0.0278
     46 H           2.1952   14.6019    3.3915 H       1  LIG1        0.0278
     47 C           7.7158    9.0778    3.7007 C.3     1  LIG1        0.0645
     48 H           8.2967    9.7003    3.2358 H       1  LIG1        0.0571
     49 H           8.1759    8.2254    3.7425 H       1  LIG1        0.0571
     50 C           8.8157    9.3434    5.8206 C.3     1  LIG1       -0.0556
     51 H           9.5097    9.8549    5.3987 H       1  LIG1        0.0236
     52 H           9.0413    8.4117    5.7904 H       1  LIG1        0.0236
     53 H           8.7244    9.6223    6.7342 H       1  LIG1        0.0236
     54 C           7.0389   10.9174    5.0687 C.3     1  LIG1       -0.0556
     55 H           7.7077   11.4949    5.4429 H       1  LIG1        0.0236
     56 H           6.2323   10.9835    5.5859 H       1  LIG1        0.0236
     57 H           6.8598   11.1791    4.1621 H       1  LIG1        0.0236
     58 H           3.9615    6.3831    2.3245 H       1  LIG1        0.1733
@<TRIPOS>BOND
     1     5     1    2
     2    20    18    1
     3    13    12    1
     4    24    23    1
     5     6     1    2
     6     1     7    1
     7     1    22    1
     8    18    21    1
     9    18    19    1
    10    18    10    1
    11     7    10    1
    12     7    58    1
    13    12    23   ar
    14    12     9   ar
    15    15    14    1
    16    23    25   ar
    17    10    11    2
    18    44    43    1
    19    11     9    1
    20    11     2    1
    21    14    22   ar
    22    14    28   ar
    23     3     2    1
    24     3    47    1
    25     9    16   ar
    26    22    30   ar
    27    48    47    1
    28    25    43    1
    29    25    26   ar
    30     8     2    2
    31    46    43    1
    32    43    45    1
    33     2     4    1
    34    47    49    1
    35    47    35    1
    36    29    28    1
    37    28    32   ar
    38    16    26   ar
    39    16    17    1
    40    57    54    1
    41    30    31    1
    42    30    33   ar
    43    26    27    1
    44     4    40    1
    45    54    35    1
    46    54    55    1
    47    54    56    1
    48    35    40    1
    49    35    50    1
    50    32    33   ar
    51    32    36    1
    52    33    34    1
    53    51    50    1
    54    52    50    1
    55    40    41    1
    56    40    42    1
    57    50    53    1
    58    37    36    1
    59    36    39    1
    60    36    38    1
