@<TRIPOS>MOLECULE
7156501.cif
 33 34 0 0 0
SMALL
GASTEIGER

@<TRIPOS>ATOM
      1 S           8.9821    8.0732    3.8801 S.2     1  LIG1       -0.0176
      2 N          10.8677    8.0359    7.3135 N.3     1  LIG1       -0.2380
      3 H          11.1620    8.8355    7.0926 H       1  LIG1        0.1445
      4 N           9.9664    7.6423    6.2842 N.am    1  LIG1       -0.2621
      5 H           9.1387    7.8522    6.5046 H       1  LIG1        0.1680
      6 N          11.4972    7.4753    4.5300 N.am    1  LIG1       -0.3203
      7 H          11.6092    7.6067    3.6810 H       1  LIG1        0.1483
      8 C          10.2478    7.7253    4.9569 C.2     1  LIG1        0.1445
      9 C          12.4626    6.5167    5.1344 C.3     1  LIG1        0.0324
     10 C          13.0233    7.0123    6.4840 C.3     1  LIG1       -0.0033
     11 H          13.6844    6.3235    6.7812 H       1  LIG1        0.0337
     12 C          11.9575    7.0926    7.5939 C.3     1  LIG1        0.0298
     13 H          11.5589    6.1828    7.7094 H       1  LIG1        0.0480
     14 C          12.6003    7.5040    8.9249 C.3     1  LIG1       -0.0357
     15 H          11.8940    7.5950    9.6120 H       1  LIG1        0.0281
     16 H          13.2202    6.7914    9.2194 H       1  LIG1        0.0281
     17 C          13.3638    8.8176    8.8177 C.3     1  LIG1       -0.0516
     18 H          13.8048    9.0160    9.6819 H       1  LIG1        0.0266
     19 H          12.7301    9.5527    8.6191 H       1  LIG1        0.0266
     20 C          14.4177    8.7379    7.7144 C.3     1  LIG1       -0.0526
     21 H          14.8578    9.6187    7.6169 H       1  LIG1        0.0265
     22 H          15.1091    8.0764    7.9684 H       1  LIG1        0.0265
     23 C          13.7958    8.3323    6.3800 C.3     1  LIG1       -0.0468
     24 H          14.5124    8.2385    5.7018 H       1  LIG1        0.0269
     25 H          13.1819    9.0461    6.0770 H       1  LIG1        0.0269
     26 C          13.6014    6.3655    4.1155 C.3     1  LIG1       -0.0437
     27 H          14.2700    5.7402    4.4642 H       1  LIG1        0.0250
     28 H          13.2422    6.0207    3.2719 H       1  LIG1        0.0250
     29 H          14.0194    7.2378    3.9606 H       1  LIG1        0.0250
     30 C          11.7966    5.1434    5.2865 C.3     1  LIG1       -0.0437
     31 H          12.4326    4.5133    5.6844 H       1  LIG1        0.0250
     32 H          11.0120    5.2238    5.8663 H       1  LIG1        0.0250
     33 H          11.5195    4.8152    4.4056 H       1  LIG1        0.0250
@<TRIPOS>BOND
     1    28    26    1
     2     7     6    1
     3     1     8    2
     4    29    26    1
     5    26    27    1
     6    26     9    1
     7    33    30    1
     8     6     8    1
     9     6     9    1
    10     8     4    1
    11     9    30    1
    12     9    10    1
    13    30    31    1
    14    30    32    1
    15    24    23    1
    16    25    23    1
    17     4     5    1
    18     4     2    1
    19    23    10    1
    20    23    20    1
    21    10    11    1
    22    10    12    1
    23     3     2    1
    24     2    12    1
    25    12    13    1
    26    12    14    1
    27    21    20    1
    28    20    22    1
    29    20    17    1
    30    19    17    1
    31    17    14    1
    32    17    18    1
    33    14    16    1
    34    14    15    1
