@<TRIPOS>MOLECULE
C18 H19 Cl O2
 40 43 0 0 0
SMALL
GASTEIGER

@<TRIPOS>ATOM
      1 CL          8.5260    1.9405    6.5617 Cl      1  LIG1       -0.0824
      2 O           9.4096    6.5982    6.5673 O.2     1  LIG1       -0.2452
      3 O          10.3563    6.0689    8.5003 O.3     1  LIG1       -0.4571
      4 C           7.0143    5.3135    5.4677 C.ar    1  LIG1       -0.0503
      5 H           6.8444    5.6320    6.3247 H       1  LIG1        0.0627
      6 C           7.9174    4.2609    5.2898 C.ar    1  LIG1       -0.0057
      7 C           6.3673    5.8900    4.3818 C.ar    1  LIG1       -0.0496
      8 C           8.1461    3.7603    4.0058 C.ar    1  LIG1       -0.0503
      9 H           8.7141    3.0335    3.8878 H       1  LIG1        0.0627
     10 C           8.6108    3.6861    6.4626 C.2     1  LIG1        0.0585
     11 C           9.2701    4.3135    7.4377 C.2     1  LIG1        0.0622
     12 C           6.6422    5.4016    3.1050 C.ar    1  LIG1       -0.0559
     13 H           6.2241    5.7911    2.3712 H       1  LIG1        0.0623
     14 C           9.6236    5.7667    7.4046 C.2     1  LIG1        0.3373
     15 C           7.5283    4.3433    2.9000 C.ar    1  LIG1       -0.0496
     16 C           9.8804    3.7025    8.6692 C.3     1  LIG1        0.0325
     17 H          10.4936    2.9692    8.4531 H       1  LIG1        0.0390
     18 C           5.3696    7.0031    4.5741 C.3     1  LIG1       -0.0397
     19 H           4.4843    6.6344    4.6196 H       1  LIG1        0.0278
     20 H           5.4247    7.6132    3.8351 H       1  LIG1        0.0278
     21 H           5.5643    7.4696    5.3900 H       1  LIG1        0.0278
     22 C           8.8529    3.3034    9.7556 C.3     1  LIG1       -0.0302
     23 H           8.0948    2.7742    9.4308 H       1  LIG1        0.0308
     24 C          10.6145    4.9082    9.3254 C.3     1  LIG1        0.1135
     25 H          11.5751    4.7378    9.4178 H       1  LIG1        0.0743
     26 C           7.8323    3.8645    1.5101 C.3     1  LIG1       -0.0397
     27 H           8.5799    4.3546    1.1593 H       1  LIG1        0.0278
     28 H           7.0665    4.0040    0.9487 H       1  LIG1        0.0278
     29 H           8.0462    2.9289    1.5335 H       1  LIG1        0.0278
     30 C           9.6360    2.6656   10.9153 C.3     1  LIG1       -0.0492
     31 H          10.2502    1.9883   10.5913 H       1  LIG1        0.0268
     32 H           9.0362    2.2654   11.5638 H       1  LIG1        0.0268
     33 C           9.9331    5.0527   10.6926 C.3     1  LIG1       -0.0030
     34 H          10.0420    5.9268   11.1212 H       1  LIG1        0.0337
     35 C           8.4780    4.6648   10.3585 C.3     1  LIG1       -0.0433
     36 H           7.9187    4.5856   11.1472 H       1  LIG1        0.0272
     37 H           8.0677    5.2616    9.7137 H       1  LIG1        0.0272
     38 C          10.3976    3.8602   11.5262 C.3     1  LIG1       -0.0466
     39 H          10.1676    3.9778   12.4610 H       1  LIG1        0.0269
     40 H          11.3572    3.7357   11.4507 H       1  LIG1        0.0269
@<TRIPOS>BOND
     1    28    26    1
     2    27    26    1
     3    26    29    1
     4    26    15    1
     5    13    12    1
     6    15    12   ar
     7    15     8   ar
     8    12     7   ar
     9    20    18    1
    10     9     8    1
    11     8     6   ar
    12     7    18    1
    13     7     4   ar
    14    18    19    1
    15    18    21    1
    16     6     4   ar
    17     6    10    1
    18     4     5    1
    19    10     1    1
    20    10    11    2
    21     2    14    2
    22    14    11    1
    23    14     3    1
    24    11    16    1
    25    17    16    1
    26     3    24    1
    27    16    24    1
    28    16    22    1
    29    24    25    1
    30    24    33    1
    31    23    22    1
    32    37    35    1
    33    22    35    1
    34    22    30    1
    35    35    33    1
    36    35    36    1
    37    31    30    1
    38    33    34    1
    39    33    38    1
    40    30    38    1
    41    30    32    1
    42    40    38    1
    43    38    39    1
