@<TRIPOS>MOLECULE
C26 H26 O5
 57 60 0 0 0
SMALL
GASTEIGER

@<TRIPOS>ATOM
      1 O           2.1639    1.3233    0.7555 O.3     1  LIG1       -0.4845
      2 O           3.3313    2.0630    3.1942 O.3     1  LIG1       -0.4548
      3 O           6.1920    0.0396    3.9193 O.3     1  LIG1       -0.4452
      4 C           1.6579    2.4569    1.4833 C.3     1  LIG1        0.1369
      5 H           0.9597    2.1571    2.1025 H       1  LIG1        0.0770
      6 C           2.8042    3.0474    2.2734 C.3     1  LIG1        0.1398
      7 H           3.5114    3.3426    1.6624 H       1  LIG1        0.0771
      8 C           4.8560    0.5492    4.0703 C.3     1  LIG1        0.2238
      9 H           4.8017    1.0500    4.9110 H       1  LIG1        0.0905
     10 C           1.2886    0.3441    0.3759 C.ar    1  LIG1        0.1288
     11 O           5.1642    1.6646    1.9446 O.2     1  LIG1       -0.2462
     12 C           1.0830    3.5030    0.5544 C.3     1  LIG1       -0.0122
     13 H           1.7656    3.7898   -0.0723 H       1  LIG1        0.0302
     14 H           0.3511    3.1190    0.0472 H       1  LIG1        0.0302
     15 C           4.5057    1.4861    2.9170 C.2     1  LIG1        0.3534
     16 C           3.9415   -0.6331    4.1539 C.ar    1  LIG1        0.0036
     17 C           1.9029   -0.7647   -0.2763 C.ar    1  LIG1        0.0238
     18 C           2.3108    4.2191    3.0889 C.3     1  LIG1       -0.0121
     19 H           1.6463    3.9127    3.7261 H       1  LIG1        0.0302
     20 H           3.0501    4.6017    3.5861 H       1  LIG1        0.0302
     21 C           1.6982    5.2843    2.1904 C.3     1  LIG1       -0.0495
     22 H           1.3454    6.0042    2.7368 H       1  LIG1        0.0266
     23 H           2.3848    5.6536    1.6130 H       1  LIG1        0.0266
     24 C           0.5822    4.7002    1.3411 C.3     1  LIG1       -0.0495
     25 H           0.2525    5.3763    0.7285 H       1  LIG1        0.0266
     26 H          -0.1530    4.4283    1.9131 H       1  LIG1        0.0266
     27 C           3.2935   -0.8156   -0.5129 C.ar    1  LIG1       -0.0505
     28 H           3.8354   -0.1074   -0.2488 H       1  LIG1        0.0625
     29 C           3.4169   -0.9864    5.3805 C.ar    1  LIG1       -0.0545
     30 H           3.6167   -0.4748    6.1309 H       1  LIG1        0.0622
     31 C           3.6340   -1.3800    3.0429 C.ar    1  LIG1       -0.0545
     32 H           3.9736   -1.1413    2.2106 H       1  LIG1        0.0622
     33 C          -0.0666    0.3744    0.5808 C.ar    1  LIG1       -0.0193
     34 H          -0.4622    1.1070    0.9950 H       1  LIG1        0.0654
     35 C           1.0871   -1.8392   -0.6891 C.ar    1  LIG1       -0.0144
     36 C           7.2030    0.8900    4.2028 C.2     1  LIG1        0.3050
     37 C          -0.8536   -0.7139    0.1582 C.ar    1  LIG1       -0.0577
     38 H          -1.7722   -0.6965    0.3027 H       1  LIG1        0.0619
     39 C           2.6118   -2.0746    5.5028 C.ar    1  LIG1       -0.0614
     40 H           2.2615   -2.3026    6.3344 H       1  LIG1        0.0618
     41 O           7.0212    2.0301    4.4632 O.2     1  LIG1       -0.2511
     42 C          -0.2993   -1.7802   -0.4516 C.ar    1  LIG1       -0.0538
     43 H          -0.8413   -2.4874   -0.7195 H       1  LIG1        0.0624
     44 C           2.3174   -2.8308    4.4129 C.ar    1  LIG1       -0.0617
     45 H           1.7763   -3.5817    4.5059 H       1  LIG1        0.0618
     46 C           3.8445   -1.9015   -1.1284 C.ar    1  LIG1       -0.0611
     47 H           4.7631   -1.9297   -1.2755 H       1  LIG1        0.0618
     48 C           2.8133   -2.4942    3.1698 C.ar    1  LIG1       -0.0614
     49 H           2.6011   -3.0089    2.4243 H       1  LIG1        0.0618
     50 C           8.5105    0.1805    4.1839 C.3     1  LIG1        0.0333
     51 H           8.5968   -0.3104    3.3643 H       1  LIG1        0.0342
     52 H           9.2227    0.8203    4.2510 H       1  LIG1        0.0342
     53 H           8.5549   -0.4276    4.9260 H       1  LIG1        0.0342
     54 C           3.0501   -2.9677   -1.5393 C.ar    1  LIG1       -0.0612
     55 H           3.4366   -3.7010   -1.9611 H       1  LIG1        0.0618
     56 C           1.7130   -2.9391   -1.3249 C.ar    1  LIG1       -0.0539
     57 H           1.1941   -3.6592   -1.6019 H       1  LIG1        0.0624
@<TRIPOS>BOND
     1    55    54    1
     2    57    56    1
     3    54    56   ar
     4    54    46   ar
     5    56    35   ar
     6    47    46    1
     7    46    27   ar
     8    43    42    1
     9    35    42   ar
    10    35    17   ar
    11    27    17   ar
    12    27    28    1
    13    42    37   ar
    14    17    10   ar
    15    13    12    1
    16    14    12    1
    17    37    38    1
    18    37    33   ar
    19    10    33   ar
    20    10     1    1
    21    12    24    1
    22    12     4    1
    23    33    34    1
    24    25    24    1
    25     1     4    1
    26    24    26    1
    27    24    21    1
    28     4     5    1
    29     4     6    1
    30    23    21    1
    31     7     6    1
    32    11    15    2
    33    21    22    1
    34    21    18    1
    35    32    31    1
    36     6    18    1
    37     6     2    1
    38    49    48    1
    39    15     2    1
    40    15     8    1
    41    31    48   ar
    42    31    16   ar
    43    18    20    1
    44    18    19    1
    45    48    44   ar
    46    51    50    1
    47     3     8    1
    48     3    36    1
    49     8    16    1
    50     8     9    1
    51    16    29   ar
    52    50    36    1
    53    50    52    1
    54    50    53    1
    55    36    41    2
    56    44    45    1
    57    44    39   ar
    58    29    39   ar
    59    29    30    1
    60    39    40    1
