@<TRIPOS>MOLECULE
C11 H11 Cl F3 N O
 28 28 0 0 0
SMALL
GASTEIGER

@<TRIPOS>ATOM
      1 CL          0.2200    6.3335   -1.2957 Cl      1  LIG1       -0.0835
      2 F          -6.8442    2.7105   -2.7744 F       1  LIG1       -0.1707
      3 F          -7.5597    3.4011   -0.8708 F       1  LIG1       -0.1707
      4 F          -6.2255    1.7220   -0.9835 F       1  LIG1       -0.1707
      5 O          -2.4912    1.3294   -3.1208 O.2     1  LIG1       -0.2761
      6 N          -3.3539    2.4105   -1.3403 N.am    1  LIG1       -0.3084
      7 H          -3.4160    2.4533   -0.4835 H       1  LIG1        0.1493
      8 C          -3.1703    4.5994   -2.4849 C.ar    1  LIG1       -0.0256
      9 C          -3.5728    5.4477   -3.5198 C.ar    1  LIG1       -0.0567
     10 H          -4.3738    5.2625   -3.9955 H       1  LIG1        0.0621
     11 C          -2.8153    6.5559   -3.8570 C.ar    1  LIG1       -0.0601
     12 H          -3.1011    7.1268   -4.5607 H       1  LIG1        0.0618
     13 C          -1.6409    6.8396   -3.1736 C.ar    1  LIG1       -0.0434
     14 H          -1.1169    7.5984   -3.4020 H       1  LIG1        0.0632
     15 C          -1.2529    5.9977   -2.1584 C.ar    1  LIG1        0.0413
     16 C          -1.9946    4.8813   -1.8033 C.ar    1  LIG1       -0.0384
     17 H          -1.7006    4.3140   -1.0998 H       1  LIG1        0.0635
     18 C          -4.0503    3.4061   -2.1378 C.3     1  LIG1        0.0565
     19 H          -4.3346    2.9729   -2.9930 H       1  LIG1        0.0551
     20 C          -5.3175    3.8783   -1.3999 C.3     1  LIG1        0.0653
     21 H          -5.0963    4.0148   -0.4442 H       1  LIG1        0.0373
     22 H          -5.5945    4.7527   -1.7712 H       1  LIG1        0.0373
     23 C          -6.4700    2.9302   -1.4938 C.3     1  LIG1        0.3922
     24 C          -2.5993    1.4532   -1.8972 C.2     1  LIG1        0.2104
     25 C          -1.8931    0.5308   -0.9526 C.3     1  LIG1        0.0122
     26 H          -2.1536   -0.3945   -1.1444 H       1  LIG1        0.0322
     27 H          -2.1388    0.7553   -0.0313 H       1  LIG1        0.0322
     28 H          -0.9242    0.6270   -1.0655 H       1  LIG1        0.0322
@<TRIPOS>BOND
     1    12    11    1
     2    10     9    1
     3    11     9   ar
     4    11    13   ar
     5     9     8   ar
     6    14    13    1
     7    13    15   ar
     8     5    24    2
     9    19    18    1
    10     2    23    1
    11     8    18    1
    12     8    16   ar
    13    15    16   ar
    14    15     1    1
    15    18    20    1
    16    18     6    1
    17    24     6   am
    18    24    25    1
    19    16    17    1
    20    22    20    1
    21    23    20    1
    22    23     4    1
    23    23     3    1
    24    20    21    1
    25     6     7    1
    26    26    25    1
    27    28    25    1
    28    25    27    1
