@<TRIPOS>MOLECULE
7156884.cif
 47 49 0 0 0
SMALL
GASTEIGER

@<TRIPOS>ATOM
      1 O           4.0343    7.1450    8.7373 O.2     1  LIG1       -0.5049
      2 H           4.1852    6.7511    9.4405 H       1  LIG1        0.2922
      3 O           5.9490   10.8872    4.1225 O.3     1  LIG1       -0.4951
      4 N           4.8259    5.7422   10.6766 N.pl3   1  LIG1       -0.3294
      5 C           5.1323    4.3584    8.6651 C.ar    1  LIG1        0.0169
      6 C           4.9093    6.7746    7.8321 C.2     1  LIG1        0.1419
      7 C           5.2276    7.8260    6.8330 C.ar    1  LIG1        0.0180
      8 C           5.4659    5.5176    7.7965 C.2     1  LIG1        0.1025
      9 C           4.7690    4.4453   10.0240 C.ar    1  LIG1        0.0383
     10 C           5.7787    9.8740    5.0282 C.ar    1  LIG1        0.1201
     11 C           6.8146    9.2284    5.6672 C.ar    1  LIG1       -0.0193
     12 H           7.6962    9.4717    5.4983 H       1  LIG1        0.0654
     13 C           6.5273    8.2127    6.5640 C.ar    1  LIG1       -0.0476
     14 H           7.2272    7.7794    6.9967 H       1  LIG1        0.0626
     15 C           4.1990    8.5011    6.1851 C.ar    1  LIG1       -0.0476
     16 H           3.3156    8.2699    6.3610 H       1  LIG1        0.0626
     17 N           7.0222    4.9222    5.8375 N.1     1  LIG1       -0.1907
     18 C           4.4713    9.5050    5.2886 C.ar    1  LIG1       -0.0193
     19 H           3.7730    9.9392    4.8544 H       1  LIG1        0.0654
     20 C           5.1555    3.0750    8.0964 C.ar    1  LIG1       -0.0515
     21 H           5.4187    2.9820    7.2094 H       1  LIG1        0.0624
     22 C           6.3279    5.2161    6.6982 C.1     1  LIG1        0.1035
     23 C           4.3676    3.3108   10.7147 C.ar    1  LIG1       -0.0400
     24 H           4.0817    3.3880   11.5963 H       1  LIG1        0.0636
     25 C           6.2395    6.1499   10.9421 C.3     1  LIG1        0.0122
     26 H           6.7647    6.0496   10.1328 H       1  LIG1        0.0464
     27 H           6.6217    5.5753   11.6235 H       1  LIG1        0.0464
     28 C           4.0181    5.8758   11.9204 C.3     1  LIG1        0.0122
     29 H           4.3830    5.3003   12.6107 H       1  LIG1        0.0464
     30 H           3.1043    5.5992   11.7478 H       1  LIG1        0.0464
     31 C           4.3867    2.0698   10.1122 C.ar    1  LIG1       -0.0600
     32 H           4.1196    1.3162   10.5873 H       1  LIG1        0.0618
     33 C           4.8029    1.9512    8.8054 C.ar    1  LIG1       -0.0610
     34 H           4.8449    1.1137    8.4032 H       1  LIG1        0.0618
     35 C           7.2526   11.4275    3.9747 C.3     1  LIG1        0.0788
     36 H           7.5772   11.7183    4.8301 H       1  LIG1        0.0660
     37 H           7.2233   12.1741    3.3725 H       1  LIG1        0.0660
     38 H           7.8396   10.7544    3.6219 H       1  LIG1        0.0660
     39 C           4.0347    7.3139   12.3940 C.3     1  LIG1       -0.0372
     40 H           3.6180    7.8781   11.7240 H       1  LIG1        0.0280
     41 H           3.5189    7.3891   13.2122 H       1  LIG1        0.0280
     42 C           6.2916    7.5936   11.4064 C.3     1  LIG1       -0.0372
     43 H           7.2095    7.8386   11.6010 H       1  LIG1        0.0280
     44 H           5.9690    8.1734   10.6984 H       1  LIG1        0.0280
     45 C           5.4435    7.7890   12.6439 C.3     1  LIG1       -0.0502
     46 H           5.8280    7.2924   13.3832 H       1  LIG1        0.0266
     47 H           5.4317    8.7285   12.8853 H       1  LIG1        0.0266
@<TRIPOS>BOND
     1    37    35    1
     2    38    35    1
     3    35     3    1
     4    35    36    1
     5     3    10    1
     6    19    18    1
     7    10    18   ar
     8    10    11   ar
     9    18    15   ar
    10    12    11    1
    11    11    13   ar
    12    17    22    3
    13    15    16    1
    14    15     7   ar
    15    13     7   ar
    16    13    14    1
    17    22     8    1
    18     7     6    1
    19    21    20    1
    20     8     6    2
    21     8     5    1
    22     6     1    1
    23    20     5   ar
    24    20    33   ar
    25    34    33    1
    26     5     9   ar
    27     1     2    1
    28    33    31   ar
    29     9     4    1
    30     9    23   ar
    31    31    32    1
    32    31    23   ar
    33    26    25    1
    34     4    25    1
    35     4    28    1
    36    44    42    1
    37    23    24    1
    38    25    42    1
    39    25    27    1
    40    42    43    1
    41    42    45    1
    42    40    39    1
    43    30    28    1
    44    28    39    1
    45    28    29    1
    46    39    45    1
    47    39    41    1
    48    45    47    1
    49    45    46    1
