@<TRIPOS>MOLECULE
C24 H19 Cl I N O
 47 50 0 0 0
SMALL
GASTEIGER

@<TRIPOS>ATOM
      1 I           8.1955    6.3898    1.6912 I       1  LIG1       -0.0435
      2 CL          6.7496   -0.0732   -0.8600 Cl      1  LIG1       -0.0835
      3 O           9.7660    2.3579    4.5876 O.2     1  LIG1       -0.2736
      4 N           7.8113    1.1597    4.4300 N.am    1  LIG1       -0.2729
      5 C           7.5753    3.4430    5.0081 C.3     1  LIG1        0.1182
      6 C           8.5556    2.2812    4.6462 C.2     1  LIG1        0.2384
      7 C           8.3939   -0.1203    4.0681 C.3     1  LIG1        0.0083
      8 H           8.0751   -0.3853    3.1804 H       1  LIG1        0.0433
      9 H           8.1291   -0.7971    4.7259 H       1  LIG1        0.0433
     10 H           9.3706   -0.0422    4.0551 H       1  LIG1        0.0433
     11 C           6.4336    1.4344    4.4695 C.ar    1  LIG1        0.0408
     12 C           5.3900    0.5826    4.1601 C.ar    1  LIG1       -0.0400
     13 H           5.5445   -0.3232    3.9168 H       1  LIG1        0.0636
     14 C           4.1051    1.1071    4.2186 C.ar    1  LIG1       -0.0600
     15 H           3.3642    0.5493    4.0105 H       1  LIG1        0.0618
     16 C           3.8815    2.4278    4.5758 C.ar    1  LIG1       -0.0613
     17 H           2.9923    2.7601    4.6158 H       1  LIG1        0.0618
     18 C           4.9461    3.2702    4.8767 C.ar    1  LIG1       -0.0552
     19 H           4.7920    4.1759    5.1179 H       1  LIG1        0.0621
     20 C           6.2321    2.7662    4.8170 C.ar    1  LIG1       -0.0029
     21 C           7.7917    4.6397    4.0741 C.2     1  LIG1       -0.0468
     22 H           7.9171    5.4903    4.4780 H       1  LIG1        0.0599
     23 C           7.8188    4.5848    2.7567 C.2     1  LIG1        0.0182
     24 C           7.5763    3.4067    1.8812 C.ar    1  LIG1       -0.0121
     25 C           6.2677    3.0363    1.5814 C.ar    1  LIG1       -0.0522
     26 H           5.5427    3.5249    1.9535 H       1  LIG1        0.0624
     27 C           6.0130    1.9584    0.7453 C.ar    1  LIG1       -0.0428
     28 H           5.1199    1.7041    0.5453 H       1  LIG1        0.0632
     29 C           7.0683    1.2676    0.2138 C.ar    1  LIG1        0.0410
     30 C           8.3792    1.6181    0.4790 C.ar    1  LIG1       -0.0428
     31 H           9.0972    1.1350    0.0882 H       1  LIG1        0.0632
     32 C           8.6282    2.6920    1.3294 C.ar    1  LIG1       -0.0522
     33 H           9.5234    2.9362    1.5323 H       1  LIG1        0.0624
     34 C           7.8814    3.8953    6.4450 C.ar    1  LIG1       -0.0243
     35 C           6.9773    3.7939    7.4901 C.ar    1  LIG1       -0.0567
     36 H           6.1492    3.3493    7.3562 H       1  LIG1        0.0621
     37 C           7.2762    4.3413    8.7347 C.ar    1  LIG1       -0.0585
     38 H           6.6513    4.2496    9.4438 H       1  LIG1        0.0620
     39 C           8.4701    5.0187    8.9640 C.ar    1  LIG1       -0.0504
     40 C           9.3979    5.0576    7.9213 C.ar    1  LIG1       -0.0585
     41 H          10.2397    5.4741    8.0626 H       1  LIG1        0.0620
     42 C           9.1160    4.5004    6.6887 C.ar    1  LIG1       -0.0567
     43 H           9.7689    4.5297    5.9996 H       1  LIG1        0.0621
     44 C           8.7466    5.7503   10.2444 C.3     1  LIG1       -0.0397
     45 H           8.7577    6.7149   10.0743 H       1  LIG1        0.0278
     46 H           9.6169    5.4707   10.5984 H       1  LIG1        0.0278
     47 H           8.0464    5.5414   10.8977 H       1  LIG1        0.0278
@<TRIPOS>BOND
     1     2    29    1
     2    31    30    1
     3    29    30   ar
     4    29    27   ar
     5    30    32   ar
     6    28    27    1
     7    27    25   ar
     8    32    33    1
     9    32    24   ar
    10    25    24   ar
    11    25    26    1
    12     1    23    1
    13    24    23    1
    14    23    21    2
    15     8     7    1
    16    13    12    1
    17    15    14    1
    18    10     7    1
    19     7     4    1
    20     7     9    1
    21    21    22    1
    22    21     5    1
    23    12    14   ar
    24    12    11   ar
    25    14    16   ar
    26     4    11    1
    27     4     6   am
    28    11    20   ar
    29    16    17    1
    30    16    18   ar
    31     3     6    2
    32     6     5    1
    33    20    18   ar
    34    20     5    1
    35    18    19    1
    36     5    34    1
    37    43    42    1
    38    34    42   ar
    39    34    35   ar
    40    42    40   ar
    41    36    35    1
    42    35    37   ar
    43    40    41    1
    44    40    39   ar
    45    37    39   ar
    46    37    38    1
    47    39    44    1
    48    45    44    1
    49    44    46    1
    50    44    47    1
