@<TRIPOS>MOLECULE
C21 H20 N2 O3
 46 50 0 0 0
SMALL
GASTEIGER

@<TRIPOS>ATOM
      1 C           1.5040    0.7431    0.8177 C.2     1  LIG1        0.1702
      2 C           2.4413   -0.1463    0.1090 C.ar    1  LIG1        0.0237
      3 C           2.7165   -0.2206   -1.2513 C.ar    1  LIG1       -0.0509
      4 H           2.2781    0.3309   -1.8588 H       1  LIG1        0.0625
      5 C           3.6542   -1.1331   -1.6737 C.ar    1  LIG1       -0.0611
      6 H           3.8653   -1.1908   -2.5783 H       1  LIG1        0.0618
      7 C           4.2864   -1.9637   -0.7690 C.ar    1  LIG1       -0.0614
      8 H           4.9056   -2.5850   -1.0784 H       1  LIG1        0.0618
      9 C           4.0199   -1.8922    0.5874 C.ar    1  LIG1       -0.0551
     10 H           4.4505   -2.4531    1.1906 H       1  LIG1        0.0621
     11 C           3.0902   -0.9582    1.0190 C.ar    1  LIG1       -0.0042
     12 C           2.7419   -0.5894    2.4493 C.3     1  LIG1        0.1125
     13 C           1.4703    0.2785    2.2732 C.3     1  LIG1        0.0632
     14 H           0.7142   -0.3421    2.3363 H       1  LIG1        0.0419
     15 C           1.1813    1.3972    3.2947 C.3     1  LIG1        0.0091
     16 H           0.7330    2.1128    2.7962 H       1  LIG1        0.0364
     17 C          -1.0669    1.4769    4.3768 C.ar    1  LIG1        0.0310
     18 H          -1.2883    2.0809    3.7048 H       1  LIG1        0.0832
     19 C           0.2150    0.9720    4.3805 C.ar    1  LIG1       -0.0247
     20 C           0.5170    0.0801    5.3956 C.ar    1  LIG1       -0.0554
     21 H           1.3665   -0.2930    5.4498 H       1  LIG1        0.0621
     22 C          -0.4433   -0.2533    6.3268 C.ar    1  LIG1       -0.0433
     23 H          -0.2500   -0.8513    7.0121 H       1  LIG1        0.0633
     24 C          -1.6848    0.3111    6.2228 C.ar    1  LIG1        0.0276
     25 H          -2.3268    0.0836    6.8551 H       1  LIG1        0.0829
     26 C           3.1619    2.9314    2.8576 C.3     1  LIG1        0.0087
     27 H           2.5343    3.6000    2.5414 H       1  LIG1        0.0433
     28 H           3.9047    3.3906    3.2785 H       1  LIG1        0.0433
     29 C           2.4712    2.0258    3.8860 C.3     1  LIG1        0.0382
     30 H           2.2360    2.5574    4.6742 H       1  LIG1        0.0396
     31 C           3.4480    0.9573    4.2872 C.2     1  LIG1        0.1456
     32 C           3.9257    0.1646    3.1067 C.3     1  LIG1        0.0641
     33 H           4.5886   -0.4903    3.4115 H       1  LIG1        0.0422
     34 C           4.6136    1.1710    2.1729 C.3     1  LIG1        0.0112
     35 H           5.3388    1.6122    2.6424 H       1  LIG1        0.0434
     36 H           4.9853    0.7074    1.4053 H       1  LIG1        0.0434
     37 C           4.1443    2.9788    0.6395 C.3     1  LIG1       -0.0127
     38 H           4.8807    3.5104    0.9502 H       1  LIG1        0.0391
     39 H           3.4415    3.5552    0.3301 H       1  LIG1        0.0391
     40 H           4.4368    2.4161   -0.0817 H       1  LIG1        0.0391
     41 N           3.6477    2.1508    1.7320 N.3     1  LIG1       -0.3039
     42 N          -2.0184    1.1635    5.2674 N.ar    1  LIG1       -0.2630
     43 O           0.8117    1.6142    0.3370 O.2     1  LIG1       -0.2916
     44 O           2.5393   -1.7116    3.2982 O.3     1  LIG1       -0.3825
     45 H           1.9049   -2.1524    3.0221 H       1  LIG1        0.2107
     46 O           3.8607    0.8065    5.4184 O.2     1  LIG1       -0.2966
@<TRIPOS>BOND
     1     6     5    1
     2     4     3    1
     3     5     3   ar
     4     5     7   ar
     5     3     2   ar
     6     8     7    1
     7     7     9   ar
     8    40    37    1
     9     2     1    1
    10     2    11   ar
    11    39    37    1
    12    43     1    2
    13     9    11   ar
    14     9    10    1
    15    37    38    1
    16    37    41    1
    17     1    13    1
    18    11    12    1
    19    36    34    1
    20    41    34    1
    21    41    26    1
    22    34    35    1
    23    34    32    1
    24    13    14    1
    25    13    12    1
    26    13    15    1
    27    12    32    1
    28    12    44    1
    29    27    26    1
    30    16    15    1
    31    26    28    1
    32    26    29    1
    33    45    44    1
    34    32    33    1
    35    32    31    1
    36    15    29    1
    37    15    19    1
    38    18    17    1
    39    29    31    1
    40    29    30    1
    41    31    46    2
    42    17    19   ar
    43    17    42   ar
    44    19    20   ar
    45    42    24   ar
    46    20    21    1
    47    20    22   ar
    48    24    22   ar
    49    24    25    1
    50    22    23    1
