@<TRIPOS>MOLECULE
2(C21 H17 N3 O5), C4 H8 O
 105 111 0 0 0
SMALL
GASTEIGER

@<TRIPOS>ATOM
      1 C           4.7556   10.6790    9.5873 C.ar    1  LIG1       -0.0553
      2 H           3.8333   10.7942    9.6360 H       1  LIG1        0.0621
      3 C           5.5833   11.0951   10.6363 C.ar    1  LIG1       -0.0613
      4 H           5.2076   11.4882   11.3891 H       1  LIG1        0.0618
      5 C           6.9477   10.9281   10.5653 C.ar    1  LIG1       -0.0600
      6 H           7.4788   11.2016   11.2775 H       1  LIG1        0.0618
      7 C           7.5353   10.3666    9.4656 C.ar    1  LIG1       -0.0402
      8 H           8.4590   10.2615    9.4169 H       1  LIG1        0.0636
      9 C           6.7161    9.9591    8.4247 C.ar    1  LIG1        0.0381
     10 C           5.3276   10.0988    8.4936 C.ar    1  LIG1       -0.0021
     11 C           4.7288    9.5257    7.2275 C.3     1  LIG1        0.1569
     12 C           6.0000    9.2248    6.3773 C.2     1  LIG1        0.2371
     13 C           4.4717    6.9945    7.7388 C.1     1  LIG1        0.1014
     14 C           3.9082    8.2486    7.4365 C.2     1  LIG1        0.1092
     15 C           2.5833    8.5409    7.3675 C.2     1  LIG1        0.1933
     16 C           3.6073   10.3910    6.5762 C.3     1  LIG1        0.1864
     17 H           3.6977   11.3226    6.8663 H       1  LIG1        0.0836
     18 C           3.5409   10.3320    5.0463 C.2     1  LIG1        0.2087
     19 C           4.4392   11.1513    4.1839 C.ar    1  LIG1        0.0662
     20 C           5.3841   12.0742    4.6750 C.ar    1  LIG1        0.1309
     21 C           6.1469   12.8085    3.7558 C.ar    1  LIG1       -0.0158
     22 H           6.7556   13.4434    4.0581 H       1  LIG1        0.0655
     23 C           5.9943   12.5896    2.4065 C.ar    1  LIG1       -0.0165
     24 H           6.5127   13.0748    1.8038 H       1  LIG1        0.0655
     25 C           5.0861   11.6638    1.9256 C.ar    1  LIG1        0.1210
     26 C           4.3022   10.9742    2.8143 C.ar    1  LIG1       -0.0058
     27 H           3.6652   10.3766    2.4937 H       1  LIG1        0.0662
     28 C           6.5423   12.9913    6.5579 C.3     1  LIG1        0.0788
     29 H           6.5197   13.8653    6.1623 H       1  LIG1        0.0660
     30 H           7.3870   12.5767    6.3692 H       1  LIG1        0.0660
     31 H           6.4293   13.0676    7.5096 H       1  LIG1        0.0660
     32 C           4.0565   10.6459    0.0122 C.3     1  LIG1        0.0788
     33 H           4.1200   10.6473   -0.9455 H       1  LIG1        0.0660
     34 H           3.1878   10.9598    0.2739 H       1  LIG1        0.0660
     35 H           4.1864    9.7532    0.3389 H       1  LIG1        0.0660
     36 N           7.0663    9.4149    7.1829 N.am    1  LIG1       -0.2841
     37 H           7.8742    9.2234    6.9597 H       1  LIG1        0.1548
     38 N           4.9689    5.9824    7.9620 N.1     1  LIG1       -0.1910
     39 N           1.4859    7.8152    7.5582 N.pl3   1  LIG1       -0.3287
     40 H           0.7104    8.1824    7.4913 H       1  LIG1        0.1451
     41 H           1.5508    6.9787    7.7490 H       1  LIG1        0.1451
     42 O           6.0211    8.8519    5.2267 O.2     1  LIG1       -0.2740
     43 O           2.3642    9.8413    7.0751 O.2     1  LIG1       -0.4658
     44 O           2.6878    9.6351    4.5431 O.2     1  LIG1       -0.2879
     45 O           5.4943   12.2009    6.0192 O.3     1  LIG1       -0.4944
     46 O           5.0551   11.5026    0.5560 O.3     1  LIG1       -0.4951
     47 C           9.5395    6.8175   12.1784 C.ar    2  LIG2       -0.0553
     48 H          10.4660    6.8938   12.1358 H       2  LIG2        0.0621
     49 C           8.7457    7.2724   11.1253 C.ar    2  LIG2       -0.0613
     50 H           9.1412    7.6885   10.3928 H       2  LIG2        0.0618
     51 C           7.3884    7.1083   11.1659 C.ar    2  LIG2       -0.0600
     52 H           6.8757    7.4020   10.4476 H       2  LIG2        0.0618
     53 C           6.7598    6.5194   12.2413 C.ar    2  LIG2       -0.0402
     54 H           5.8389    6.3913   12.2515 H       2  LIG2        0.0636
     55 C           7.5508    6.1263   13.3066 C.ar    2  LIG2        0.0381
     56 C           8.9336    6.2559   13.2782 C.ar    2  LIG2       -0.0021
     57 C           9.4943    5.6757   14.5544 C.3     2  LIG2        0.1569
     58 C           8.2033    5.3935   15.3722 C.2     2  LIG2        0.2371
     59 C           9.7189    3.2007   13.8565 C.1     2  LIG2        0.1014
     60 C          10.2768    4.3871   14.3231 C.2     2  LIG2        0.1092
     61 C          11.5946    4.6102   14.5362 C.2     2  LIG2        0.1933
     62 C          10.5988    6.5108   15.2829 C.3     2  LIG2        0.1864
     63 H          10.6172    7.4164   14.9095 H       2  LIG2        0.0836
     64 C          10.4618    6.5957   16.8067 C.2     2  LIG2        0.2087
     65 C           9.4943    7.5532   17.4235 C.ar    2  LIG2        0.0662
     66 C           8.7104    8.4963   16.7174 C.ar    2  LIG2        0.1309
     67 C           7.9237    9.3875   17.4215 C.ar    2  LIG2       -0.0158
     68 H           7.4420   10.0354   16.9609 H       2  LIG2        0.0655
     69 C           7.8418    9.3299   18.8033 C.ar    2  LIG2       -0.0165
     70 H           7.3079    9.9361   19.2639 H       2  LIG2        0.0655
     71 C           8.5564    8.3681   19.4993 C.ar    2  LIG2        0.1210
     72 C           9.3898    7.5114   18.8033 C.ar    2  LIG2       -0.0058
     73 H           9.8940    6.8894   19.2761 H       2  LIG2        0.0662
     74 C           7.7584    9.1830   14.6316 C.3     2  LIG2        0.0788
     75 H           7.8940    9.0607   13.6901 H       2  LIG2        0.0660
     76 H           7.8008   10.1189   14.8426 H       2  LIG2        0.0660
     77 H           6.8968    8.8389   14.8791 H       2  LIG2        0.0660
     78 C           7.5875    8.9944   21.5872 C.3     2  LIG2        0.0788
     79 H           6.7076    8.8648   21.2260 H       2  LIG2        0.0660
     80 H           7.8276    9.9217   21.5222 H       2  LIG2        0.0660
     81 H           7.5974    8.7252   22.5104 H       2  LIG2        0.0660
     82 N           7.1581    5.5936   14.5445 N.am    2  LIG2       -0.2841
     83 H           6.3432    5.4151   14.7513 H       2  LIG2        0.1548
     84 N           9.2485    2.2202   13.4770 N.1     2  LIG2       -0.1910
     85 N          12.6609    3.8327   14.3434 N.pl3   2  LIG2       -0.3287
     86 H          13.3121    4.1394   14.8162 H       2  LIG2        0.1451
     87 H          12.4957    3.0250   14.5930 H       2  LIG2        0.1451
     88 O           8.1454    5.0220   16.5230 O.2     2  LIG2       -0.2740
     89 O          11.8597    5.8473   14.9960 O.2     2  LIG2       -0.4658
     90 O          11.1821    5.9161   17.4944 O.2     2  LIG2       -0.2879
     91 O           8.7768    8.4847   15.3567 O.3     2  LIG2       -0.4944
     92 O           8.5112    8.2198   20.8634 O.3     2  LIG2       -0.4951
     93 C           3.6610    9.2334   13.1848 C.3     3  LIG3        0.0477
     94 H           3.5254    9.9562   13.8159 H       3  LIG3        0.0560
     95 H           4.5805    9.2709   12.8784 H       3  LIG3        0.0560
     96 C           3.4279    7.9880   13.8321 C.3     3  LIG3       -0.0274
     97 H           2.7966    8.0816   14.5626 H       3  LIG3        0.0288
     98 H           4.2528    7.6050   14.1710 H       3  LIG3        0.0288
     99 C           2.8616    7.1630   12.7324 C.3     3  LIG3       -0.0274
    100 H           3.4505    6.4229   12.5173 H       3  LIG3        0.0288
    101 H           1.9901    6.8131   12.9738 H       3  LIG3        0.0288
    102 C           2.7570    8.1018   11.5940 C.3     3  LIG3        0.0477
    103 H           3.4788    7.9549   10.9650 H       3  LIG3        0.0560
    104 H           1.9124    7.9823   11.1335 H       3  LIG3        0.0560
    105 O           2.8376    9.3904   12.1439 O.3     3  LIG3       -0.3798
@<TRIPOS>BOND
     1    33    32    1
     2    32    34    1
     3    32    35    1
     4    32    46    1
     5    46    25    1
     6    24    23    1
     7    25    23   ar
     8    25    26   ar
     9    23    21   ar
    10    27    26    1
    11    26    19   ar
    12    21    22    1
    13    21    20   ar
    14    19    20   ar
    15    19    18    1
    16    44    18    2
    17    20    45    1
    18    18    16    1
    19    42    12    2
    20    45    28    1
    21    29    28    1
    22    30    28    1
    23    12    36   am
    24    12    11    1
    25    28    31    1
    26    16    17    1
    27    16    43    1
    28    16    11    1
    29    37    36    1
    30    43    15    1
    31    36     9    1
    32    11    14    1
    33    11    10    1
    34    15    14    2
    35    15    39    1
    36    14    13    1
    37    40    39    1
    38    39    41    1
    39    13    38    3
    40     9    10   ar
    41     9     7   ar
    42    10     1   ar
    43     8     7    1
    44     7     5   ar
    45     1     2    1
    46     1     3   ar
    47    50    49    1
    48    52    51    1
    49     5     3   ar
    50     5     6    1
    51     3     4    1
    52   103   102    1
    53    49    51   ar
    54    49    47   ar
    55   104   102    1
    56    51    53   ar
    57   102   105    1
    58   102    99    1
    59    48    47    1
    60   105    93    1
    61    47    56   ar
    62    53    54    1
    63    53    55   ar
    64   100    99    1
    65    99   101    1
    66    99    96    1
    67    95    93    1
    68    93    94    1
    69    93    96    1
    70    56    55   ar
    71    56    57    1
    72    55    82    1
    73    84    59    3
    74    75    74    1
    75    96    98    1
    76    96    97    1
    77    59    60    1
    78    60    61    2
    79    60    57    1
    80    85    61    1
    81    85    87    1
    82    85    86    1
    83    61    89    1
    84    82    83    1
    85    82    58   am
    86    57    62    1
    87    57    58    1
    88    74    76    1
    89    74    77    1
    90    74    91    1
    91    63    62    1
    92    89    62    1
    93    62    64    1
    94    91    66    1
    95    58    88    2
    96    66    67   ar
    97    66    65   ar
    98    64    65    1
    99    64    90    2
   100    68    67    1
   101    67    69   ar
   102    65    72   ar
   103    69    70    1
   104    69    71   ar
   105    72    73    1
   106    72    71   ar
   107    71    92    1
   108    92    78    1
   109    79    78    1
   110    80    78    1
   111    78    81    1
