@<TRIPOS>MOLECULE
C11 H5 F3 O2 S
 22 23 0 0 0
SMALL
GASTEIGER

@<TRIPOS>ATOM
      1 S          15.6881    4.8539    1.3686 S.3     1  LIG1       -0.0149
      2 O          11.0669    1.2757   -1.0958 O.2     1  LIG1       -0.2873
      3 O          13.3095    5.7238    0.6613 O.2     1  LIG1       -0.2872
      4 C          12.9463    2.2386   -0.0418 C.ar    1  LIG1        0.0335
      5 C          12.9010    4.7042    0.1531 C.2     1  LIG1        0.1879
      6 C          15.4136    2.0889    1.1808 C.ar    1  LIG1       -0.0473
      7 H          16.2489    2.0243    1.5834 H       1  LIG1        0.0629
      8 C          13.5947    3.4190    0.3416 C.ar    1  LIG1        0.0461
      9 C          13.5145    1.0157    0.2091 C.ar    1  LIG1       -0.0502
     10 H          13.0719    0.2372   -0.0418 H       1  LIG1        0.0625
     11 C          11.6389    2.2977   -0.7456 C.2     1  LIG1        0.1869
     12 C          11.0755    3.6128   -1.0383 C.2     1  LIG1       -0.0107
     13 H          10.2847    3.6704   -1.5231 H       1  LIG1        0.0657
     14 C          14.7352    0.9448    0.8300 C.ar    1  LIG1       -0.0600
     15 H          15.1095    0.1135    1.0157 H       1  LIG1        0.0618
     16 C          14.8589    3.3418    0.9384 C.ar    1  LIG1        0.0275
     17 C          11.6606    4.7160   -0.6315 C.2     1  LIG1       -0.0107
     18 H          11.2752    5.5339   -0.8491 H       1  LIG1        0.0657
     19 F          17.8571    3.6270    0.5819 F       1  LIG1       -0.1600
     20 F          18.0699    5.4291    1.7251 F       1  LIG1       -0.1600
     21 C          17.3852    4.3000    1.5926 C.3     1  LIG1        0.4477
     22 F          17.5308    3.5766    2.7188 F       1  LIG1       -0.1600
@<TRIPOS>BOND
     1    13    12    1
     2     2    11    2
     3    12    11    1
     4    12    17    2
     5    18    17    1
     6    11     4    1
     7    17     5    1
     8     4     9   ar
     9     4     8   ar
    10    10     9    1
    11     5     8    1
    12     5     3    2
    13     9    14   ar
    14     8    16   ar
    15    19    21    1
    16    14    15    1
    17    14     6   ar
    18    16     6   ar
    19    16     1    1
    20     6     7    1
    21     1    21    1
    22    21    20    1
    23    21    22    1
