@<TRIPOS>MOLECULE
C15 H15 N O6 S
 38 39 0 0 0
SMALL
GASTEIGER

@<TRIPOS>ATOM
      1 S           7.8912    7.0929    2.5634 S.O2    1  LIG1        0.1511
      2 O           8.1202   10.2642    3.8541 O.2     1  LIG1       -0.2664
      3 O           6.6856    8.1687    2.3690 O.2     1  LIG1       -0.3366
      4 O           3.1223   10.4114    8.1726 O.2     1  LIG1       -0.2456
      5 O           4.9829   11.3967    7.4226 O.3     1  LIG1       -0.4648
      6 O           8.1497    7.0005    3.9639 O.2     1  LIG1       -0.1314
      7 O           8.9160    7.4951    1.6624 O.2     1  LIG1       -0.1314
      8 N           6.1972   10.3360    5.1651 N.am    1  LIG1       -0.2783
      9 H           6.4265   10.9184    5.7158 H       1  LIG1        0.1552
     10 C           6.9967    9.8797    4.1521 C.2     1  LIG1        0.2862
     11 C           6.2122    8.8118    3.4944 C.2     1  LIG1        0.2230
     12 C           5.0395    8.6390    4.1000 C.2     1  LIG1        0.0207
     13 C           5.0157    9.5990    5.2259 C.2     1  LIG1        0.0472
     14 C           4.0360    9.6703    6.1407 C.2     1  LIG1        0.0441
     15 H           3.3209    9.0760    6.0472 H       1  LIG1        0.0708
     16 C           3.9870   10.5093    7.3365 C.2     1  LIG1        0.3335
     17 C           4.9879   12.2086    8.6253 C.3     1  LIG1        0.0820
     18 H           4.1146   12.6960    8.7187 H       1  LIG1        0.0661
     19 H           5.0911   11.6463    9.4125 H       1  LIG1        0.0661
     20 H           5.7655   12.8167    8.5427 H       1  LIG1        0.0661
     21 C           3.9445    7.6726    3.7961 C.3     1  LIG1       -0.0342
     22 H           4.0874    7.2437    2.9408 H       1  LIG1        0.0279
     23 H           3.0705    8.1038    3.7484 H       1  LIG1        0.0279
     24 H           3.8795    7.0087    4.5043 H       1  LIG1        0.0279
     25 C           7.1314    5.6323    1.9788 C.ar    1  LIG1        0.1281
     26 C           6.2845    4.9199    2.8216 C.ar    1  LIG1       -0.0332
     27 H           6.1406    5.2133    3.6967 H       1  LIG1        0.0638
     28 C           5.6898    3.7673    2.3424 C.ar    1  LIG1       -0.0569
     29 H           5.1316    3.2665    2.9200 H       1  LIG1        0.0621
     30 C           5.9398    3.3051    1.0433 C.ar    1  LIG1       -0.0503
     31 C           6.7854    4.0485    0.2278 C.ar    1  LIG1       -0.0569
     32 H           6.9650    3.7565   -0.7041 H       1  LIG1        0.0621
     33 C           7.3799    5.2211    0.6792 C.ar    1  LIG1       -0.0332
     34 H           7.9530    5.7141    0.1035 H       1  LIG1        0.0638
     35 C           5.3100    2.0347    0.5519 C.3     1  LIG1       -0.0397
     36 H           5.4207    1.3021    1.1494 H       1  LIG1        0.0278
     37 H           5.6650    1.7744   -0.2796 H       1  LIG1        0.0278
     38 H           4.3243    2.1287    0.4453 H       1  LIG1        0.0278
@<TRIPOS>BOND
     1    32    31    1
     2    37    35    1
     3    34    33    1
     4    31    33   ar
     5    31    30   ar
     6    38    35    1
     7    35    30    1
     8    35    36    1
     9    33    25   ar
    10    30    28   ar
    11     7     1    2
    12    25     1    1
    13    25    26   ar
    14    28    26   ar
    15    28    29    1
    16     3     1    1
    17     3    11    1
    18     1     6    2
    19    26    27    1
    20    22    21    1
    21    11    12    2
    22    11    10    1
    23    23    21    1
    24    21    12    1
    25    21    24    1
    26     2    10    2
    27    12    13    1
    28    10     8   am
    29     8    13    1
    30     8     9    1
    31    13    14    2
    32    15    14    1
    33    14    16    1
    34    16     5    1
    35    16     4    2
    36     5    17    1
    37    20    17    1
    38    17    18    1
    39    17    19    1
