@<TRIPOS>MOLECULE
7156135.cif
 56 57 0 0 0
SMALL
GASTEIGER

@<TRIPOS>ATOM
      1 O           5.3535    0.6762   -3.3341 O.3     1  LIG1       -0.3935
      2 H           4.8857    1.3242   -3.1541 H       1  LIG1        0.2095
      3 O           6.9320    6.7189    2.7860 O.3     1  LIG1       -0.5061
      4 H           6.8245    5.9730    2.4644 H       1  LIG1        0.2922
      5 O           4.5509   -1.7611   -2.4409 O.3     1  LIG1       -0.3935
      6 H           4.7767   -1.0469   -2.7769 H       1  LIG1        0.2095
      7 N           6.6120   -0.1541   -0.8042 N.pl3   1  LIG1       -0.3255
      8 N           6.1622    4.3016    2.6207 N.2     1  LIG1       -0.2549
      9 N           6.5649    8.9876    6.9312 N.pl3   1  LIG1       -0.3303
     10 C           6.5052    0.9046    0.0827 C.ar    1  LIG1        0.0299
     11 C           5.7260    5.6295    4.5426 C.ar    1  LIG1        0.0346
     12 C           6.2174    3.1243    1.8346 C.ar    1  LIG1        0.0640
     13 C           6.4438    6.7434    4.0321 C.ar    1  LIG1        0.1272
     14 C           6.2442    7.9280    6.1323 C.ar    1  LIG1        0.0332
     15 C           6.6540    7.8619    4.8045 C.ar    1  LIG1        0.0015
     16 H           7.0828    8.5951    4.4276 H       1  LIG1        0.0673
     17 C           5.5163    1.9396    2.0534 C.ar    1  LIG1       -0.0346
     18 H           4.9461    1.8735    2.7847 H       1  LIG1        0.0639
     19 C           5.2563    5.7455    5.8473 C.ar    1  LIG1       -0.0479
     20 H           4.7515    5.0476    6.1997 H       1  LIG1        0.0626
     21 C           7.2368    2.0874   -0.0943 C.ar    1  LIG1       -0.0387
     22 H           7.8376    2.1526   -0.8008 H       1  LIG1        0.0637
     23 C           7.3284    0.0063   -2.0635 C.3     1  LIG1        0.0354
     24 H           7.3914   -0.8620   -2.4928 H       1  LIG1        0.0486
     25 H           8.2317    0.3000   -1.8677 H       1  LIG1        0.0486
     26 C           5.4979    6.8286    6.6324 C.ar    1  LIG1       -0.0398
     27 H           5.1725    6.8494    7.5042 H       1  LIG1        0.0636
     28 C           7.0795    3.1478    0.7561 C.ar    1  LIG1       -0.0346
     29 H           7.5759    3.9182    0.6019 H       1  LIG1        0.0639
     30 C           5.6555    0.8647    1.2035 C.ar    1  LIG1       -0.0387
     31 H           5.1725    0.0888    1.3768 H       1  LIG1        0.0637
     32 C           5.5985    4.4240    3.7648 C.2     1  LIG1        0.0389
     33 H           5.0937    3.7188    4.0995 H       1  LIG1        0.0837
     34 C           6.0312   -1.4556   -0.5169 C.3     1  LIG1        0.0354
     35 H           6.0262   -1.5834    0.4443 H       1  LIG1        0.0486
     36 H           6.6065   -2.1381   -0.8964 H       1  LIG1        0.0486
     37 C           6.7155    0.9771   -3.0422 C.3     1  LIG1        0.0599
     38 H           6.7692    1.8735   -2.6762 H       1  LIG1        0.0573
     39 H           7.2271    0.9617   -3.8671 H       1  LIG1        0.0573
     40 C           6.0211    9.1942    8.2590 C.3     1  LIG1        0.0093
     41 H           5.1574    8.7564    8.3127 H       1  LIG1        0.0461
     42 H           5.8786   10.1441    8.3928 H       1  LIG1        0.0461
     43 C           7.5826    9.9900    6.5128 C.3     1  LIG1        0.0093
     44 H           8.0506   10.3145    7.2975 H       1  LIG1        0.0461
     45 H           8.2334    9.5595    5.9362 H       1  LIG1        0.0461
     46 C           4.6391   -1.6677   -1.0310 C.3     1  LIG1        0.0599
     47 H           4.2852   -2.4835   -0.6432 H       1  LIG1        0.0573
     48 H           4.0823   -0.9336   -0.7310 H       1  LIG1        0.0573
     49 C           6.9855   11.1384    5.7941 C.3     1  LIG1       -0.0494
     50 H           6.5327   10.8248    5.0088 H       1  LIG1        0.0245
     51 H           7.6782   11.7529    5.5410 H       1  LIG1        0.0245
     52 H           6.3566   11.5834    6.3676 H       1  LIG1        0.0245
     53 C           6.8983    8.6749    9.3664 C.3     1  LIG1       -0.0494
     54 H           7.0208    7.7286    9.2608 H       1  LIG1        0.0245
     55 H           6.4841    8.8516   10.2140 H       1  LIG1        0.0245
     56 H           7.7520    9.1126    9.3305 H       1  LIG1        0.0245
@<TRIPOS>BOND
     1    39    37    1
     2     1     2    1
     3     1    37    1
     4    37    38    1
     5    37    23    1
     6     6     5    1
     7    24    23    1
     8     5    46    1
     9    23    25    1
    10    23     7    1
    11    46    48    1
    12    46    47    1
    13    46    34    1
    14    36    34    1
    15     7    34    1
    16     7    10    1
    17    22    21    1
    18    34    35    1
    19    21    10   ar
    20    21    28   ar
    21    10    30   ar
    22    29    28    1
    23    28    12   ar
    24    30    31    1
    25    30    17   ar
    26    12    17   ar
    27    12     8    1
    28    17    18    1
    29     4     3    1
    30     8    32    2
    31     3    13    1
    32    32    33    1
    33    32    11    1
    34    13    11   ar
    35    13    15   ar
    36    16    15    1
    37    11    19   ar
    38    15    14   ar
    39    50    49    1
    40    51    49    1
    41    49    52    1
    42    49    43    1
    43    19    20    1
    44    19    26   ar
    45    45    43    1
    46    14    26   ar
    47    14     9    1
    48    43     9    1
    49    43    44    1
    50    26    27    1
    51     9    40    1
    52    40    41    1
    53    40    42    1
    54    40    53    1
    55    54    53    1
    56    56    53    1
    57    53    55    1
