@<TRIPOS>MOLECULE
C11 H11 F O2
 25 26 0 0 0
SMALL
GASTEIGER

@<TRIPOS>ATOM
      1 F           2.0150    1.0052   18.1591 F       1  LIG1       -0.2404
      2 O           0.0174    1.3224   20.3645 O.3     1  LIG1       -0.4505
      3 O          -0.4221   -0.8213   20.7600 O.2     1  LIG1       -0.2507
      4 C           1.1754    2.1800   20.0818 C.3     1  LIG1        0.1668
      5 C           2.2123    1.1827   19.5408 C.3     1  LIG1        0.1544
      6 H           3.1472    1.4721   19.7483 H       1  LIG1        0.0700
      7 C           1.8569   -0.1019   20.2446 C.3     1  LIG1        0.0801
      8 H           2.0548   -0.8861   19.6739 H       1  LIG1        0.0407
      9 H           2.3552   -0.1896   21.0954 H       1  LIG1        0.0407
     10 C           0.3879    0.0200   20.4946 C.2     1  LIG1        0.3109
     11 C           1.6731    2.8060   21.3742 C.ar    1  LIG1       -0.0017
     12 C           2.8283    3.5830   21.3581 C.ar    1  LIG1       -0.0547
     13 H           3.2991    3.7042   20.5431 H       1  LIG1        0.0622
     14 C           3.2997    4.1812   22.5112 C.ar    1  LIG1       -0.0614
     15 H           4.0928    4.7037   22.4810 H       1  LIG1        0.0618
     16 C           2.6287    4.0236   23.6989 C.ar    1  LIG1       -0.0617
     17 H           2.9510    4.4385   24.4909 H       1  LIG1        0.0618
     18 C           1.4758    3.2530   23.7316 C.ar    1  LIG1       -0.0614
     19 H           1.0106    3.1382   24.5509 H       1  LIG1        0.0618
     20 C           0.9982    2.6527   22.5905 C.ar    1  LIG1       -0.0547
     21 H           0.2051    2.1316   22.6275 H       1  LIG1        0.0622
     22 C           0.7163    3.2138   19.0843 C.3     1  LIG1       -0.0177
     23 H           0.3419    2.7646   18.2979 H       1  LIG1        0.0272
     24 H           1.4786    3.7670   18.8142 H       1  LIG1        0.0272
     25 H           0.0303    3.7805   19.4938 H       1  LIG1        0.0272
@<TRIPOS>BOND
     1     1     5    1
     2    23    22    1
     3    24    22    1
     4    22    25    1
     5    22     4    1
     6     5     6    1
     7     5     4    1
     8     5     7    1
     9     8     7    1
    10     4     2    1
    11     4    11    1
    12     7    10    1
    13     7     9    1
    14     2    10    1
    15    10     3    2
    16    13    12    1
    17    12    11   ar
    18    12    14   ar
    19    11    20   ar
    20    15    14    1
    21    14    16   ar
    22    20    21    1
    23    20    18   ar
    24    16    18   ar
    25    16    17    1
    26    18    19    1
