@<TRIPOS>MOLECULE
7157841.cif
 48 52 0 0 0
SMALL
GASTEIGER

@<TRIPOS>ATOM
      1 CL          0.2583    5.7449    2.0824 Cl      1  LIG1       -0.0835
      2 O           5.8177    2.3592    0.6485 O.2     1  LIG1       -0.4529
      3 N           7.1740    4.4921    3.2371 N.am    1  LIG1       -0.2677
      4 C           4.3810    3.9439    1.7283 C.ar    1  LIG1        0.0192
      5 C           7.1021    1.8830    0.7250 C.ar    1  LIG1        0.1382
      6 C           6.8883    3.4822    2.2699 C.ar    1  LIG1        0.0908
      7 C           5.7015    3.3411    1.6160 C.ar    1  LIG1        0.1576
      8 C           1.8438    5.0377    1.9487 C.ar    1  LIG1        0.0410
      9 C           4.0827    4.8673    2.7192 C.ar    1  LIG1       -0.0496
     10 H           4.7441    5.1233    3.3198 H       1  LIG1        0.0625
     11 C           7.8081    2.5193    1.7188 C.ar    1  LIG1        0.0499
     12 C           9.1615    2.1289    1.9514 C.ar    1  LIG1       -0.0053
     13 C           2.8225    5.4113    2.8279 C.ar    1  LIG1       -0.0427
     14 H           2.6371    6.0308    3.4970 H       1  LIG1        0.0632
     15 C           3.3671    3.5879    0.8418 C.ar    1  LIG1       -0.0496
     16 H           3.5435    2.9734    0.1657 H       1  LIG1        0.0625
     17 C           7.2754    4.1479    4.5440 C.2     1  LIG1        0.2199
     18 C           9.6983    1.1241    1.0946 C.ar    1  LIG1       -0.0170
     19 O           7.0906    2.9849    4.8958 O.2     1  LIG1       -0.2753
     20 C           2.1098    4.1311    0.9505 C.ar    1  LIG1       -0.0427
     21 H           1.4424    3.8868    0.3507 H       1  LIG1        0.0632
     22 C           7.3661    5.8688    2.7504 C.3     1  LIG1        0.0199
     23 H           6.7968    6.4632    3.2639 H       1  LIG1        0.0469
     24 H           7.0798    5.9141    1.8246 H       1  LIG1        0.0469
     25 C           7.6234    0.9150   -0.1403 C.ar    1  LIG1       -0.0181
     26 H           7.1101    0.5339   -0.8150 H       1  LIG1        0.0655
     27 C           7.6519    5.2358    5.5226 C.3     1  LIG1        0.0245
     28 H           7.5971    4.8749    6.4218 H       1  LIG1        0.0358
     29 H           7.0008    5.9511    5.4546 H       1  LIG1        0.0358
     30 C           9.9761    2.6418    2.9699 C.ar    1  LIG1       -0.0533
     31 H           9.6383    3.2933    3.5413 H       1  LIG1        0.0624
     32 C           8.7916    6.3649    2.8419 C.3     1  LIG1       -0.0367
     33 H           9.3907    5.6455    2.5876 H       1  LIG1        0.0280
     34 H           8.9131    7.0886    2.2080 H       1  LIG1        0.0280
     35 C           8.9132    0.5650    0.0570 C.ar    1  LIG1       -0.0505
     36 H           9.2980   -0.0655   -0.5087 H       1  LIG1        0.0625
     37 C          11.0167    0.6901    1.3196 C.ar    1  LIG1       -0.0540
     38 H          11.3742    0.0269    0.7745 H       1  LIG1        0.0624
     39 C          11.2615    2.1986    3.1390 C.ar    1  LIG1       -0.0611
     40 H          11.7905    2.5621    3.8130 H       1  LIG1        0.0618
     41 C           9.0553    5.8302    5.3178 C.3     1  LIG1       -0.0447
     42 H           9.3391    6.2407    6.1501 H       1  LIG1        0.0270
     43 H           9.6704    5.1049    5.1270 H       1  LIG1        0.0270
     44 C           9.1715    6.8535    4.2188 C.3     1  LIG1       -0.0512
     45 H          10.0874    7.1708    4.1906 H       1  LIG1        0.0266
     46 H           8.6071    7.6099    4.4431 H       1  LIG1        0.0266
     47 C          11.7808    1.2105    2.3102 C.ar    1  LIG1       -0.0612
     48 H          12.6503    0.9066    2.4354 H       1  LIG1        0.0618
@<TRIPOS>BOND
     1    26    25    1
     2    36    35    1
     3    25    35   ar
     4    25     5   ar
     5    35    18   ar
     6    16    15    1
     7    21    20    1
     8     2     5   ar
     9     2     7   ar
    10     5    11   ar
    11    38    37    1
    12    15    20   ar
    13    15     4   ar
    14    20     8   ar
    15    18    37   ar
    16    18    12   ar
    17    37    47   ar
    18     7     4    1
    19     7     6   ar
    20    11    12   ar
    21    11     6   ar
    22     4     9   ar
    23    24    22    1
    24     8     1    1
    25     8    13   ar
    26    12    30   ar
    27    34    32    1
    28     6     3    1
    29    47    48    1
    30    47    39   ar
    31    33    32    1
    32     9    13   ar
    33     9    10    1
    34    22    32    1
    35    22     3    1
    36    22    23    1
    37    13    14    1
    38    32    44    1
    39    30    39   ar
    40    30    31    1
    41    39    40    1
    42     3    17   am
    43    45    44    1
    44    44    46    1
    45    44    41    1
    46    17    19    2
    47    17    27    1
    48    43    41    1
    49    41    27    1
    50    41    42    1
    51    29    27    1
    52    27    28    1
