@<TRIPOS>MOLECULE
C45 H39 N3 O3
 90 96 0 0 0
SMALL
GASTEIGER

@<TRIPOS>ATOM
      1 O           1.0753   10.7346    8.8017 O.2     1  LIG1       -0.2696
      2 O           3.7870    6.6323   14.1064 O.2     1  LIG1       -0.2696
      3 O           7.1096   12.6127   11.3300 O.2     1  LIG1       -0.2696
      4 N           0.5662    9.7245   10.7844 N.am    1  LIG1       -0.2677
      5 N           4.9224    8.5823   14.2900 N.am    1  LIG1       -0.2677
      6 N           5.0227   13.4960   11.1330 N.am    1  LIG1       -0.2677
      7 C           3.6153   13.2336   11.3181 C.ar    1  LIG1        0.0378
      8 C           3.0568   12.1709   10.6212 C.ar    1  LIG1       -0.0281
      9 H           3.5916   11.6553   10.0281 H       1  LIG1        0.0644
     10 C           1.7152   11.8648   10.7939 C.ar    1  LIG1        0.0396
     11 C           0.9304   12.6332   11.6501 C.ar    1  LIG1       -0.0418
     12 H           0.0069   12.4345   11.7498 H       1  LIG1        0.0631
     13 C           1.4910   13.6957   12.3647 C.ar    1  LIG1       -0.0154
     14 C           2.8428   13.9995   12.1834 C.ar    1  LIG1       -0.0325
     15 H           3.2329   14.7284   12.6516 H       1  LIG1        0.0642
     16 C           0.6431   14.4215   13.3533 C.ar    1  LIG1       -0.0178
     17 C          -0.6553   14.7982   13.0257 C.ar    1  LIG1       -0.0540
     18 H          -0.9845   14.6335   12.1504 H       1  LIG1        0.0624
     19 C          -1.4786   15.4148   13.9643 C.ar    1  LIG1       -0.0612
     20 H          -2.3593   15.6796   13.7267 H       1  LIG1        0.0618
     21 C          -1.0047   15.6408   15.2471 C.ar    1  LIG1       -0.0617
     22 H          -1.5657   16.0493   15.8955 H       1  LIG1        0.0618
     23 C           0.2813   15.2724   15.5827 C.ar    1  LIG1       -0.0612
     24 H           0.6032   15.4324   16.4620 H       1  LIG1        0.0618
     25 C           1.1119   14.6692   14.6436 C.ar    1  LIG1       -0.0540
     26 H           1.9986   14.4258   14.8819 H       1  LIG1        0.0624
     27 C           1.1078   10.7263   10.0285 C.2     1  LIG1        0.2509
     28 C          -0.2197    8.6557   10.1500 C.3     1  LIG1        0.0173
     29 H           0.2253    7.7854   10.3132 H       1  LIG1        0.0466
     30 H          -0.2414    8.8078    9.1710 H       1  LIG1        0.0466
     31 C          -1.6428    8.5922   10.6758 C.3     1  LIG1       -0.0489
     32 H          -2.1250    7.8684   10.2256 H       1  LIG1        0.0245
     33 H          -1.6268    8.4241   11.6417 H       1  LIG1        0.0245
     34 H          -2.0945    9.4445   10.4995 H       1  LIG1        0.0245
     35 C           0.9673    9.5187   12.1567 C.ar    1  LIG1        0.0378
     36 C           2.1699    8.8655   12.4101 C.ar    1  LIG1       -0.0281
     37 H           2.7255    8.5843   11.6920 H       1  LIG1        0.0644
     38 C           2.5481    8.6304   13.7304 C.ar    1  LIG1        0.0396
     39 C           1.7346    9.0666   14.7737 C.ar    1  LIG1       -0.0418
     40 H           1.9976    8.8987   15.6701 H       1  LIG1        0.0631
     41 C           0.5419    9.7459   14.5259 C.ar    1  LIG1       -0.0154
     42 C           0.1525    9.9422   13.1953 C.ar    1  LIG1       -0.0325
     43 H          -0.6750   10.3680   13.0038 H       1  LIG1        0.0642
     44 C          -0.2839   10.2867   15.6386 C.ar    1  LIG1       -0.0178
     45 C          -0.3867    9.6152   16.8542 C.ar    1  LIG1       -0.0540
     46 H           0.0928    8.8058   16.9874 H       1  LIG1        0.0624
     47 C          -1.1845   10.1204   17.8727 C.ar    1  LIG1       -0.0612
     48 H          -1.2511    9.6482   18.6942 H       1  LIG1        0.0618
     49 C          -1.8813   11.2970   17.7050 C.ar    1  LIG1       -0.0617
     50 H          -2.4398   11.6257   18.3998 H       1  LIG1        0.0618
     51 C          -1.7601   11.9943   16.5171 C.ar    1  LIG1       -0.0612
     52 H          -2.2185   12.8181   16.4042 H       1  LIG1        0.0618
     53 C          -0.9721   11.4946   15.4892 C.ar    1  LIG1       -0.0540
     54 H          -0.8993   11.9797   14.6751 H       1  LIG1        0.0624
     55 C           3.8048    7.8633   14.0509 C.2     1  LIG1        0.2509
     56 C           6.1691    7.8890   14.6608 C.3     1  LIG1        0.0173
     57 H           6.9429    8.4281   14.3602 H       1  LIG1        0.0466
     58 H           6.2070    7.0161   14.1944 H       1  LIG1        0.0466
     59 C           6.2729    7.6610   16.1491 C.3     1  LIG1       -0.0489
     60 H           7.1141    7.2001   16.3502 H       1  LIG1        0.0245
     61 H           6.2541    8.5230   16.6148 H       1  LIG1        0.0245
     62 H           5.5181    7.1111   16.4489 H       1  LIG1        0.0245
     63 C           4.9610   10.0225   14.2071 C.ar    1  LIG1        0.0378
     64 C           5.4351   10.6142   13.0436 C.ar    1  LIG1       -0.0281
     65 H           5.7217   10.0813   12.3125 H       1  LIG1        0.0644
     66 C           5.4812   12.0024   12.9711 C.ar    1  LIG1        0.0396
     67 C           5.0631   12.7801   14.0509 C.ar    1  LIG1       -0.0418
     68 H           5.1083   13.7278   13.9913 H       1  LIG1        0.0631
     69 C           4.5806   12.1891   15.2164 C.ar    1  LIG1       -0.0154
     70 C           4.5517   10.7906   15.2857 C.ar    1  LIG1       -0.0325
     71 H           4.2495   10.3640   16.0781 H       1  LIG1        0.0642
     72 C           4.0557   13.0299   16.3237 C.ar    1  LIG1       -0.0178
     73 C           4.5837   14.2959   16.5883 C.ar    1  LIG1       -0.0540
     74 H           5.3301   14.6077   16.0893 H       1  LIG1        0.0624
     75 C           4.0299   15.1057   17.5725 C.ar    1  LIG1       -0.0612
     76 H           4.3935   15.9683   17.7365 H       1  LIG1        0.0618
     77 C           2.9507   14.6603   18.3152 C.ar    1  LIG1       -0.0617
     78 H           2.5769   15.2109   18.9942 H       1  LIG1        0.0618
     79 C           2.4216   13.4108   18.0635 C.ar    1  LIG1       -0.0612
     80 H           1.6845   13.0989   18.5768 H       1  LIG1        0.0618
     81 C           2.9575   12.6051   17.0664 C.ar    1  LIG1       -0.0540
     82 H           2.5704   11.7562   16.8905 H       1  LIG1        0.0624
     83 C           5.9538   12.7020   11.7324 C.2     1  LIG1        0.2509
     84 C           5.4301   14.4066   10.0477 C.3     1  LIG1        0.0173
     85 H           4.6815   14.5089    9.4076 H       1  LIG1        0.0466
     86 H           6.1961   14.0125    9.5604 H       1  LIG1        0.0466
     87 C           5.8207   15.7620   10.5821 C.3     1  LIG1       -0.0489
     88 H           6.0856   16.3420    9.8381 H       1  LIG1        0.0245
     89 H           5.0589   16.1601   11.0510 H       1  LIG1        0.0245
     90 H           6.5725   15.6637   11.2038 H       1  LIG1        0.0245
@<TRIPOS>BOND
     1     1    27    2
     2    30    28    1
     3    85    84    1
     4    86    84    1
     5    88    87    1
     6     9     8    1
     7    27     4   am
     8    27    10    1
     9    84    87    1
    10    84     6    1
    11    28    29    1
    12    28    31    1
    13    28     4    1
    14    32    31    1
    15    34    31    1
    16    87    89    1
    17    87    90    1
    18     8    10   ar
    19     8     7   ar
    20    31    33    1
    21     4    35    1
    22    10    11   ar
    23     6     7    1
    24     6    83   am
    25     7    14   ar
    26     3    83    2
    27    11    12    1
    28    11    13   ar
    29    37    36    1
    30    83    66    1
    31    18    17    1
    32    35    36   ar
    33    35    42   ar
    34    14    13   ar
    35    14    15    1
    36    65    64    1
    37    13    16    1
    38    36    38   ar
    39    66    64   ar
    40    66    67   ar
    41    43    42    1
    42    17    16   ar
    43    17    19   ar
    44    64    63   ar
    45    42    41   ar
    46    16    25   ar
    47    20    19    1
    48    38    55    1
    49    38    39   ar
    50    19    21   ar
    51    68    67    1
    52    55     2    2
    53    55     5   am
    54    67    69   ar
    55    58    56    1
    56    63     5    1
    57    63    70   ar
    58     5    56    1
    59    57    56    1
    60    41    39   ar
    61    41    44    1
    62    25    26    1
    63    25    23   ar
    64    56    59    1
    65    54    53    1
    66    39    40    1
    67    69    70   ar
    68    69    72    1
    69    21    23   ar
    70    21    22    1
    71    70    71    1
    72    53    44   ar
    73    53    51   ar
    74    23    24    1
    75    44    45   ar
    76    74    73    1
    77    59    60    1
    78    59    62    1
    79    59    61    1
    80    72    73   ar
    81    72    81   ar
    82    52    51    1
    83    51    49   ar
    84    73    75   ar
    85    45    46    1
    86    45    47   ar
    87    82    81    1
    88    81    79   ar
    89    75    76    1
    90    75    77   ar
    91    49    47   ar
    92    49    50    1
    93    47    48    1
    94    79    77   ar
    95    79    80    1
    96    77    78    1
