@<TRIPOS>MOLECULE
C31 H21 F3 N6 O
 124 132 0 0 0
SMALL
GASTEIGER

@<TRIPOS>ATOM
      1 F           2.7561    4.5780   16.2017 F       1  LIG1       -0.1659
      2 F           4.2710    5.9946   15.6606 F       1  LIG1       -0.1659
      3 O          -8.3964    9.1058   14.7460 O.3     1  LIG1       -0.4951
      4 O          14.3982    9.9632    5.3836 O.3     2  LIG2       -0.4951
      5 N           9.7812   11.4398    8.1190 N.pl3   2  LIG2       -0.0329
      6 N          -2.9249   10.0745   14.4894 N.pl3   1  LIG1       -0.0329
      7 N           9.3792   10.5409    9.0074 N.pl3   2  LIG2        0.1011
      8 N          -2.1980    9.3667   15.3217 N.pl3   1  LIG1        0.1011
      9 N          -2.5862   10.9144   13.5511 N.pl3   1  LIG1       -0.1089
     10 N          -0.5453   10.9943   15.9312 N.2     1  LIG1       -0.0356
     11 F           3.0717    5.0776   14.1455 F       1  LIG1       -0.1659
     12 F           3.4560    9.2390   12.9784 F       2  LIG2       -0.1659
     13 N           9.4713   11.9721   10.9163 N.2     2  LIG2       -0.0356
     14 N           9.3071   12.6231    7.9008 N.pl3   2  LIG2       -0.1089
     15 F           4.8075    7.9279   13.8450 F       2  LIG2       -0.1659
     16 N          15.5706   14.6389    9.7456 N.1     2  LIG2       -0.1909
     17 N           3.0385   14.2996    9.8132 N.1     2  LIG2       -0.1909
     18 N           3.0719   10.4330    9.8752 N.1     1  LIG1       -0.1909
     19 N          -4.5492   16.0019   18.0732 N.1     1  LIG1       -0.1909
     20 C          -1.2946   10.7875   12.9753 C.ar    1  LIG1        0.0775
     21 C          -0.8875    9.8101   15.5728 C.2     1  LIG1        0.3874
     22 C          -0.5863   11.9456   12.6253 C.ar    1  LIG1       -0.0213
     23 C           0.9816   10.5635   11.3860 C.ar    1  LIG1        0.0521
     24 C          -1.5013   11.9838   16.2316 C.ar    1  LIG1        0.1799
     25 C          -1.4024   13.2637   15.6565 C.ar    1  LIG1        0.0049
     26 C          -4.3478    9.8498   14.6072 C.ar    1  LIG1        0.0962
     27 C           0.5374   11.8140   11.8159 C.ar    1  LIG1       -0.0393
     28 H           1.0026   12.5755   11.5564 H       1  LIG1        0.0634
     29 C           0.1232    8.7234   15.5449 C.ar    1  LIG1        0.0717
     30 C           8.9150   11.0433   10.2214 C.2     2  LIG2        0.3874
     31 C          10.9152   11.0373    7.3128 C.ar    2  LIG2        0.0962
     32 C          -0.8407    9.5308   12.5527 C.ar    1  LIG1       -0.0357
     33 H          -1.3039    8.7656   12.8070 H       1  LIG1        0.0638
     34 C           7.7516   10.3395   10.8108 C.ar    2  LIG2        0.0717
     35 C          -4.9212    9.6262   15.8467 C.ar    1  LIG1       -0.0317
     36 H          -4.3958    9.6369   16.6140 H       1  LIG1        0.0639
     37 C          -0.9597   13.3098   13.1339 C.3     1  LIG1       -0.0217
     38 H          -1.9264   13.3917   13.1387 H       1  LIG1        0.0317
     39 H          -0.6087   13.9808   12.5268 H       1  LIG1        0.0317
     40 C          -2.2380   14.2628   16.1273 C.ar    1  LIG1       -0.0370
     41 H          -2.1761   15.1150   15.7600 H       1  LIG1        0.0634
     42 C          -2.4450   11.7391   17.2391 C.ar    1  LIG1       -0.0094
     43 H          -2.5094   10.8896   17.6111 H       1  LIG1        0.0661
     44 C           8.0210   12.9043    8.4277 C.ar    2  LIG2        0.0775
     45 C          -3.2779   12.7448   17.6844 C.ar    1  LIG1       -0.0402
     46 H          -3.9090   12.5707   18.3450 H       1  LIG1        0.0632
     47 C           2.1433   10.4822   10.5466 C.1     1  LIG1        0.0992
     48 C           5.4435   13.5574    9.2095 C.ar    2  LIG2        0.0521
     49 C           0.2832    9.4130   11.7655 C.ar    1  LIG1       -0.0425
     50 H           0.5760    8.5741   11.4878 H       1  LIG1        0.0631
     51 C           1.4537    8.9955   15.8625 C.ar    1  LIG1       -0.0461
     52 H           1.7060    9.8608   16.0936 H       1  LIG1        0.0626
     53 C          -6.2841    9.3854   15.9352 C.ar    1  LIG1       -0.0180
     54 H          -6.6808    9.2491   16.7646 H       1  LIG1        0.0655
     55 C          -5.1132    9.8141   13.4502 C.ar    1  LIG1       -0.0317
     56 H          -4.7152    9.9582   12.6221 H       1  LIG1        0.0639
     57 C          10.7101   12.5200   10.5575 C.ar    2  LIG2        0.1799
     58 C           5.6684   12.3531    8.5424 C.ar    2  LIG2       -0.0425
     59 H           4.9627   11.7772    8.3575 H       2  LIG2        0.0631
     60 C          13.2353   13.5993   10.1362 C.ar    2  LIG2        0.0523
     61 C          -7.0552    9.3492   14.7799 C.ar    1  LIG1        0.1202
     62 C           6.9518   12.0328    8.1638 C.ar    2  LIG2       -0.0357
     63 H           7.1135   11.2271    7.7265 H       2  LIG2        0.0638
     64 C          -0.4204   13.5912   14.5649 C.3     1  LIG1       -0.0195
     65 H           0.3863   13.0704   14.7038 H       1  LIG1        0.0318
     66 H          -0.1814   14.5292   14.6295 H       1  LIG1        0.0318
     67 C          12.1291   14.4305   10.2702 C.ar    2  LIG2       -0.0370
     68 H          12.2420   15.3519   10.2067 H       2  LIG2        0.0634
     69 C          -3.1699   14.0254   17.1388 C.ar    1  LIG1        0.0523
     70 C          -3.9529   15.1194   17.6520 C.1     1  LIG1        0.0992
     71 C          11.6710    9.9400    7.7218 C.ar    2  LIG2       -0.0317
     72 H          11.4005    9.4308    8.4509 H       2  LIG2        0.0639
     73 C           6.4915   14.4258    9.4703 C.ar    2  LIG2       -0.0393
     74 H           6.3198   15.2237    9.9169 H       2  LIG2        0.0634
     75 C           2.0341    6.7024   15.4715 C.ar    1  LIG1        0.0549
     76 C          14.5393   14.1695    9.9249 C.1     2  LIG2        0.0992
     77 C          10.8580   13.9163   10.4953 C.ar    2  LIG2        0.0049
     78 C           7.7968   14.1302    9.0789 C.ar    2  LIG2       -0.0213
     79 C          13.0828   12.2169   10.2233 C.ar    2  LIG2       -0.0402
     80 H          13.8213   11.6571   10.1476 H       2  LIG2        0.0632
     81 C          -6.4651    9.5650   13.5364 C.ar    1  LIG1       -0.0180
     82 H          -6.9840    9.5412   12.7651 H       1  LIG1        0.0655
     83 C           4.0973   13.9528    9.5564 C.1     2  LIG2        0.0992
     84 C          11.8281   11.6862   10.4217 C.ar    2  LIG2       -0.0094
     85 H          11.7209   10.7630   10.4660 H       2  LIG2        0.0661
     86 C          11.3027   11.7884    6.2167 C.ar    2  LIG2       -0.0317
     87 H          10.7853   12.5090    5.9383 H       2  LIG2        0.0639
     88 C          12.4682   11.4611    5.5336 C.ar    2  LIG2       -0.0180
     89 H          12.7352   11.9622    4.7964 H       2  LIG2        0.0655
     90 C           2.3998    7.9888   15.8355 C.ar    1  LIG1       -0.0493
     91 H           3.2826    8.1749   16.0612 H       1  LIG1        0.0623
     92 C           5.5895    9.0729   11.9758 C.ar    2  LIG2        0.0549
     93 C          12.8153    9.6168    7.0406 C.ar    2  LIG2       -0.0180
     94 H          13.3157    8.8791    7.3071 H       2  LIG2        0.0655
     95 C           0.7060    6.4197   15.1673 C.ar    1  LIG1       -0.0493
     96 H           0.4576    5.5543   14.9345 H       1  LIG1        0.0623
     97 C          13.2336   10.3777    5.9587 C.ar    2  LIG2        0.1202
     98 C          -0.2468    7.4235   15.2090 C.ar    1  LIG1       -0.0461
     99 H          -1.1352    7.2289   15.0127 H       1  LIG1        0.0626
    100 C           7.3289    9.1115   10.3442 C.ar    2  LIG2       -0.0461
    101 H           7.7736    8.7104    9.6329 H       2  LIG2        0.0626
    102 F           3.9183    7.4496   11.9716 F       2  LIG2       -0.1659
    103 C           9.6839   14.8406   10.6717 C.3     2  LIG2       -0.0195
    104 H          10.0021   15.6829   11.0322 H       2  LIG2        0.0318
    105 H           9.0790   14.4529   11.3238 H       2  LIG2        0.0318
    106 C           8.8951   15.1246    9.3710 C.3     2  LIG2       -0.0217
    107 H           8.5043   16.0107    9.4327 H       2  LIG2        0.0317
    108 H           9.5157   15.1296    8.6263 H       2  LIG2        0.0317
    109 C          -9.0570    8.8900   15.9853 C.3     1  LIG1        0.0788
    110 H          -9.9957    8.7591   15.8286 H       1  LIG1        0.0660
    111 H          -8.9315    9.6548   16.5530 H       1  LIG1        0.0660
    112 H          -8.6913    8.1116   16.4119 H       1  LIG1        0.0660
    113 C           3.0380    5.6038   15.3756 C.3     1  LIG1        0.4174
    114 C           7.0813   10.9331   11.8794 C.ar    2  LIG2       -0.0461
    115 H           7.3621   11.7577   12.2027 H       2  LIG2        0.0626
    116 C           6.0049   10.3016   12.4568 C.ar    2  LIG2       -0.0493
    117 H           5.5569   10.6998   13.1692 H       2  LIG2        0.0623
    118 C           6.2501    8.4738   10.9269 C.ar    2  LIG2       -0.0493
    119 H           5.9721    7.6443   10.6128 H       2  LIG2        0.0623
    120 C           4.4551    8.4005   12.6604 C.3     2  LIG2        0.4174
    121 C          14.9980   10.8036    4.4283 C.3     2  LIG2        0.0788
    122 H          14.3760   10.9772    3.7193 H       2  LIG2        0.0660
    123 H          15.7797   10.3736    4.0701 H       2  LIG2        0.0660
    124 H          15.2511   11.6312    4.8441 H       2  LIG2        0.0660
@<TRIPOS>BOND
     1   122   121    1
     2   123   121    1
     3   121   124    1
     4   121     4    1
     5    89    88    1
     6     4    97    1
     7    88    97   ar
     8    88    86   ar
     9    87    86    1
    10    97    93   ar
    11    86    31   ar
    12    93    94    1
    13    93    71   ar
    14    31    71   ar
    15    31     5    1
    16    71    72    1
    17    63    62    1
    18    14     5    1
    19    14    44    1
    20     5     7    1
    21    62    44   ar
    22    62    58   ar
    23    59    58    1
    24    44    78   ar
    25    58    48   ar
    26   108   106    1
    27     7    30    1
    28    78   106    1
    29    78    73   ar
    30    48    73   ar
    31    48    83    1
    32   106   107    1
    33   106   103    1
    34    73    74    1
    35    83    17    3
    36   101   100    1
    37    16    76    3
    38    18    47    3
    39    76    60    1
    40    60    79   ar
    41    60    67   ar
    42    80    79    1
    43    68    67    1
    44    30    34    1
    45    30    13    2
    46    79    84   ar
    47    67    77   ar
    48   100    34   ar
    49   100   118   ar
    50    84    85    1
    51    84    57   ar
    52    77    57   ar
    53    77   103    1
    54    47    23    1
    55    57    13    1
    56   119   118    1
    57   103   104    1
    58   103   105    1
    59    34   114   ar
    60   118    92   ar
    61    23    49   ar
    62    23    27   ar
    63    50    49    1
    64    28    27    1
    65    49    32   ar
    66    27    22   ar
    67   114   115    1
    68   114   116   ar
    69   102   120    1
    70    92   116   ar
    71    92   120    1
    72   116   117    1
    73    39    37    1
    74    32    33    1
    75    32    20   ar
    76    56    55    1
    77    22    20   ar
    78    22    37    1
    79   120    12    1
    80   120    15    1
    81    82    81    1
    82    20     9    1
    83    37    38    1
    84    37    64    1
    85    55    81   ar
    86    55    26   ar
    87    81    61   ar
    88     9     6    1
    89    11   113    1
    90     6    26    1
    91     6     8    1
    92    64    66    1
    93    64    65    1
    94    64    25    1
    95    26    35   ar
    96     3    61    1
    97     3   109    1
    98    61    53   ar
    99    96    95    1
   100    99    98    1
   101    95    98   ar
   102    95    75   ar
   103    98    29   ar
   104     8    21    1
   105   113    75    1
   106   113     2    1
   107   113     1    1
   108    75    90   ar
   109    29    21    1
   110    29    51   ar
   111    21    10    2
   112    25    40   ar
   113    25    24   ar
   114    41    40    1
   115   110   109    1
   116    90    51   ar
   117    90    91    1
   118    35    53   ar
   119    35    36    1
   120    51    52    1
   121    10    24    1
   122    53    54    1
   123   109   112    1
   124   109   111    1
   125    40    69   ar
   126    24    42   ar
   127    69    70    1
   128    69    45   ar
   129    42    43    1
   130    42    45   ar
   131    70    19    3
   132    45    46    1
