@<TRIPOS>MOLECULE
C31 H27 N O4 S
 64 69 0 0 0
SMALL
GASTEIGER

@<TRIPOS>ATOM
      1 S          11.5255    5.7944    5.0809 S.O2    1  LIG1        0.0748
      2 O           9.4849    9.5284    6.3780 O.3     1  LIG1       -0.3272
      3 O           8.3369    8.8661    8.2467 O.3     1  LIG1       -0.4519
      4 O          12.3805    5.8271    6.2348 O.2     1  LIG1       -0.1498
      5 O          10.4749    4.8181    5.0155 O.2     1  LIG1       -0.1498
      6 N          10.8625    7.2676    4.9487 N.pl3   1  LIG1       -0.2000
      7 C           8.4185    7.3708    4.7382 C.ar    1  LIG1        0.0073
      8 C           8.2380    6.4579    8.4562 C.ar    1  LIG1        0.0173
      9 C           9.6761    7.3871    4.1235 C.ar    1  LIG1        0.0589
     10 C           8.2999    7.7313    9.0198 C.ar    1  LIG1        0.1320
     11 C           8.1711    5.3669    9.3099 C.ar    1  LIG1       -0.0511
     12 H           8.0986    4.4939    8.9425 H       1  LIG1        0.0625
     13 C           7.2888    7.3830    3.9154 C.ar    1  LIG1       -0.0523
     14 H           6.4264    7.3585    4.3135 H       1  LIG1        0.0624
     15 C           8.2638    6.3464    7.0128 C.2     1  LIG1       -0.0407
     16 H           8.2358    5.4845    6.6150 H       1  LIG1        0.0630
     17 C           7.3929    7.4320    2.5385 C.ar    1  LIG1       -0.0611
     18 H           6.6104    7.4120    2.0009 H       1  LIG1        0.0618
     19 C           7.1280    9.6222    6.3291 C.ar    1  LIG1        0.0284
     20 C           8.3354    8.8318    6.8083 C.3     1  LIG1        0.2670
     21 C           5.9426    9.5556    7.0580 C.ar    1  LIG1       -0.0520
     22 H           5.9155    9.0635    7.8696 H       1  LIG1        0.0622
     23 C           8.3197    7.9068   10.3860 C.ar    1  LIG1       -0.0192
     24 H           8.3595    8.7808   10.7567 H       1  LIG1        0.0654
     25 C           8.3253    7.4170    6.2328 C.2     1  LIG1        0.0379
     26 C           8.6472    7.5095    1.9440 C.ar    1  LIG1       -0.0599
     27 H           8.7243    7.5816    0.9994 H       1  LIG1        0.0618
     28 C           7.1454   10.3147    5.1187 C.ar    1  LIG1       -0.0520
     29 H           7.9426   10.3477    4.6026 H       1  LIG1        0.0622
     30 C           9.7843    7.4796    2.7335 C.ar    1  LIG1       -0.0385
     31 H          10.6432    7.5216    2.3291 H       1  LIG1        0.0637
     32 C           8.2830    6.7994   11.2147 C.ar    1  LIG1       -0.0583
     33 H           8.3101    6.9156   12.1572 H       1  LIG1        0.0619
     34 C           4.7992   10.2031    6.6073 C.ar    1  LIG1       -0.0613
     35 H           4.0000   10.1692    7.1203 H       1  LIG1        0.0618
     36 C           8.2063    5.5192   10.6820 C.ar    1  LIG1       -0.0610
     37 H           8.1788    4.7600   11.2532 H       1  LIG1        0.0618
     38 C          10.7575    8.9624    6.7833 C.3     1  LIG1        0.0782
     39 H          10.6035    8.2043    7.4168 H       1  LIG1        0.0611
     40 C          12.4256    4.3724    2.9154 C.ar    1  LIG1       -0.0348
     41 H          11.7380    3.7495    3.1208 H       1  LIG1        0.0637
     42 C           4.8237   10.9010    5.4088 C.ar    1  LIG1       -0.0617
     43 H           4.0408   11.3373    5.0944 H       1  LIG1        0.0618
     44 C           6.0004   10.9568    4.6680 C.ar    1  LIG1       -0.0613
     45 H           6.0195   11.4374    3.8483 H       1  LIG1        0.0618
     46 C          14.2832    5.0336    1.5469 C.ar    1  LIG1       -0.0503
     47 C          14.4005    6.1967    2.3091 C.ar    1  LIG1       -0.0570
     48 H          15.0841    6.8221    2.0964 H       1  LIG1        0.0621
     49 C          13.5578    6.4593    3.3518 C.ar    1  LIG1       -0.0348
     50 H          13.6488    7.2611    3.8541 H       1  LIG1        0.0637
     51 C          11.5175   10.0644    7.4824 C.3     1  LIG1       -0.0370
     52 H          11.5837   10.8418    6.8901 H       1  LIG1        0.0255
     53 H          12.4174    9.7476    7.7079 H       1  LIG1        0.0255
     54 H          11.0451   10.3168    8.3027 H       1  LIG1        0.0255
     55 C          12.5625    5.5342    3.6693 C.ar    1  LIG1        0.1087
     56 C          11.4921    8.4591    5.5515 C.3     1  LIG1        0.0611
     57 H          11.5230    9.1834    4.8767 H       1  LIG1        0.0508
     58 H          12.4251    8.2392    5.8003 H       1  LIG1        0.0508
     59 C          13.2832    4.1330    1.8798 C.ar    1  LIG1       -0.0570
     60 H          13.1927    3.3315    1.3772 H       1  LIG1        0.0621
     61 C          15.2289    4.7411    0.4055 C.3     1  LIG1       -0.0397
     62 H          14.8431    5.0743   -0.4313 H       1  LIG1        0.0278
     63 H          15.3695    3.7734    0.3378 H       1  LIG1        0.0278
     64 H          16.0865    5.1851    0.5701 H       1  LIG1        0.0278
@<TRIPOS>BOND
     1    62    61    1
     2    63    61    1
     3    61    64    1
     4    61    46    1
     5    27    26    1
     6    60    59    1
     7    46    59   ar
     8    46    47   ar
     9    59    40   ar
    10    26    17   ar
    11    26    30   ar
    12    18    17    1
    13    48    47    1
    14    47    49   ar
    15    31    30    1
    16    17    13   ar
    17    30     9   ar
    18    40    41    1
    19    40    55   ar
    20    49    55   ar
    21    49    50    1
    22    55     1    1
    23    45    44    1
    24    13    14    1
    25    13     7   ar
    26     9     7   ar
    27     9     6    1
    28    29    28    1
    29    44    28   ar
    30    44    42   ar
    31     7    25    1
    32    57    56    1
    33     6     1    1
    34     6    56    1
    35     5     1    2
    36     1     4    2
    37    43    42    1
    38    28    19   ar
    39    42    34   ar
    40    56    58    1
    41    56    38    1
    42    25    20    1
    43    25    15    2
    44    19    20    1
    45    19    21   ar
    46     2    38    1
    47     2    20    1
    48    34    21   ar
    49    34    35    1
    50    16    15    1
    51    38    39    1
    52    38    51    1
    53    20     3    1
    54    52    51    1
    55    15     8    1
    56    21    22    1
    57    51    53    1
    58    51    54    1
    59     3    10    1
    60     8    10   ar
    61     8    11   ar
    62    12    11    1
    63    10    23   ar
    64    11    36   ar
    65    23    24    1
    66    23    32   ar
    67    36    32   ar
    68    36    37    1
    69    32    33    1
