@<TRIPOS>MOLECULE
C20 H26 O3 S
 50 53 0 0 0
SMALL
GASTEIGER

@<TRIPOS>ATOM
      1 S           3.8051    5.2888    7.4420 S.O2    1  LIG1        0.0102
      2 O           4.1842    6.6607    7.6596 O.2     1  LIG1       -0.1684
      3 O           4.6511    4.2568    7.9802 O.2     1  LIG1       -0.1684
      4 O           2.2101    2.6250    7.7306 O.2     1  LIG1       -0.2950
      5 C           1.7267    3.5892    8.2648 C.2     1  LIG1        0.1616
      6 C           3.9497    6.1285    4.8461 C.ar    1  LIG1       -0.0368
      7 H           4.1241    6.9715    5.1971 H       1  LIG1        0.0636
      8 C           3.6901    5.0553    5.6918 C.ar    1  LIG1        0.0893
      9 C           0.6843    4.8348   10.0518 C.3     1  LIG1       -0.0376
     10 H          -0.2009    5.1801   10.2471 H       1  LIG1        0.0276
     11 H           1.1419    4.6684   10.8899 H       1  LIG1        0.0276
     12 C           0.9867    5.9863    7.8083 C.3     1  LIG1        0.0033
     13 H           0.1394    5.5267    7.6294 H       1  LIG1        0.0335
     14 C           2.1779    5.0234    8.0917 C.3     1  LIG1        0.1599
     15 C           1.4693    5.8378    9.2109 C.3     1  LIG1        0.0118
     16 C           3.9461    5.9292    3.4721 C.ar    1  LIG1       -0.0600
     17 H           4.1377    6.6364    2.8998 H       1  LIG1        0.0618
     18 C           1.1347    7.3207    7.0702 C.3     1  LIG1       -0.0328
     19 H           2.0356    7.3613    6.6863 H       1  LIG1        0.0307
     20 C           3.6601    4.6875    2.9599 C.ar    1  LIG1       -0.0616
     21 H           3.6615    4.5580    2.0393 H       1  LIG1        0.0618
     22 C           3.4027    3.7987    5.1721 C.ar    1  LIG1       -0.0368
     23 H           3.2332    3.0827    5.7412 H       1  LIG1        0.0636
     24 C           1.0039    8.4418    8.1140 C.3     1  LIG1       -0.0494
     25 H           1.0739    9.3026    7.6717 H       1  LIG1        0.0268
     26 H           0.1301    8.3910    8.5322 H       1  LIG1        0.0268
     27 C           3.3705    3.6248    3.8008 C.ar    1  LIG1       -0.0600
     28 H           3.1539    2.7945    3.4419 H       1  LIG1        0.0618
     29 C           0.5813    3.5499    9.2445 C.3     1  LIG1        0.0087
     30 H           0.6549    2.7754    9.8239 H       1  LIG1        0.0342
     31 H          -0.2674    3.5080    8.7760 H       1  LIG1        0.0342
     32 C           0.1151    7.3969    5.9203 C.3     1  LIG1       -0.0435
     33 H          -0.7808    7.3067    6.3075 H       1  LIG1        0.0298
     34 C           2.0785    8.3364    9.1807 C.3     1  LIG1       -0.0496
     35 H           1.9999    9.0905    9.7836 H       1  LIG1        0.0268
     36 H           2.9494    8.3859    8.7559 H       1  LIG1        0.0268
     37 C           1.9934    7.0376    9.9934 C.3     1  LIG1       -0.0354
     38 H           1.2999    7.2140   10.6622 H       1  LIG1        0.0304
     39 C           0.3096    6.2644    4.9198 C.3     1  LIG1       -0.0624
     40 H           0.2703    5.4213    5.3785 H       1  LIG1        0.0232
     41 H          -0.3832    6.2999    4.2560 H       1  LIG1        0.0232
     42 H           1.1654    6.3570    4.4938 H       1  LIG1        0.0232
     43 C           3.2490    6.7697   10.8117 C.3     1  LIG1       -0.0618
     44 H           3.5092    7.5721   11.2688 H       1  LIG1        0.0233
     45 H           3.0709    6.0790   11.4542 H       1  LIG1        0.0233
     46 H           3.9575    6.4903   10.2290 H       1  LIG1        0.0233
     47 C           0.1780    8.7376    5.1911 C.3     1  LIG1       -0.0624
     48 H           0.0558    9.4511    5.8198 H       1  LIG1        0.0232
     49 H           1.0339    8.8290    4.7638 H       1  LIG1        0.0232
     50 H          -0.5148    8.7731    4.5260 H       1  LIG1        0.0232
@<TRIPOS>BOND
     1    21    20    1
     2    17    16    1
     3    20    16   ar
     4    20    27   ar
     5    28    27    1
     6    16     6   ar
     7    27    22   ar
     8    41    39    1
     9    42    39    1
    10    50    47    1
    11    49    47    1
    12     6     7    1
    13     6     8   ar
    14    39    40    1
    15    39    32    1
    16    22     8   ar
    17    22    23    1
    18    47    48    1
    19    47    32    1
    20     8     1    1
    21    32    33    1
    22    32    18    1
    23    19    18    1
    24    18    12    1
    25    18    24    1
    26     1     2    2
    27     1     3    2
    28     1    14    1
    29    13    12    1
    30    25    24    1
    31     4     5    2
    32    12    14    1
    33    12    15    1
    34    14     5    1
    35    14    15    1
    36    24    26    1
    37    24    34    1
    38     5    29    1
    39    36    34    1
    40    31    29    1
    41    34    35    1
    42    34    37    1
    43    15    37    1
    44    15     9    1
    45    29    30    1
    46    29     9    1
    47    37    38    1
    48    37    43    1
    49     9    10    1
    50     9    11    1
    51    46    43    1
    52    43    44    1
    53    43    45    1
