@<TRIPOS>MOLECULE
2(C28 H29 N O5 S)
 128 136 0 0 0
SMALL
GASTEIGER

@<TRIPOS>ATOM
      1 S          11.1721   10.8868   12.1195 S.O2    1  LIG1        0.0747
      2 S           9.0258    8.0026    5.2685 S.O2    2  LIG2        0.0747
      3 O          12.4106   10.2272   12.4080 O.2     1  LIG1       -0.1498
      4 O           6.1407    5.4186    9.0753 O.3     2  LIG2       -0.4488
      5 O           7.9790    7.4348    4.4706 O.2     2  LIG2       -0.1498
      6 O          10.2149   10.2677   11.2460 O.2     1  LIG1       -0.1498
      7 O           5.8387    4.8015   11.5885 O.3     2  LIG2       -0.4914
      8 O          10.3344    8.9069   15.1632 O.3     1  LIG1       -0.3292
      9 O           8.2336    5.7845    8.1308 O.3     2  LIG2       -0.3292
     10 O          10.2813    7.3248    5.4029 O.2     2  LIG2       -0.1498
     11 O           8.2174    8.3613   15.9412 O.3     1  LIG1       -0.4488
     12 O           7.7436    7.7614   18.4434 O.3     1  LIG1       -0.4914
     13 N           8.4232    8.1885    6.7683 N.pl3   2  LIG2       -0.2024
     14 N          10.4159   11.1469   13.5336 N.pl3   1  LIG1       -0.2024
     15 C           4.9723    9.5605    6.8825 C.ar    2  LIG2       -0.0570
     16 H           4.5443   10.3824    6.6745 H       2  LIG2        0.0621
     17 C           4.2203    8.4924    7.3313 C.ar    2  LIG2       -0.0499
     18 C           8.6956   11.6679    3.5847 C.ar    2  LIG2       -0.0570
     19 H           7.9915   12.2330    3.2880 H       2  LIG2        0.0621
     20 C           4.8900    7.3242    7.6643 C.ar    2  LIG2       -0.0473
     21 H           4.3862    6.5958    8.0066 H       2  LIG2        0.0626
     22 C           5.8468    1.7617    8.7461 C.ar    2  LIG2       -0.0509
     23 H           5.8575    1.0801    8.0851 H       2  LIG2        0.0625
     24 C           6.2002   11.2935   14.0533 C.ar    1  LIG1       -0.0499
     25 C           6.2868    3.5537    7.0156 C.2     2  LIG2       -0.0484
     26 H           6.1805    2.9408    6.2976 H       2  LIG2        0.0624
     27 C           8.3420    4.6820   15.7105 C.ar    1  LIG1       -0.0509
     28 H           8.4962    3.9925   15.0751 H       1  LIG1        0.0625
     29 C           6.8833   12.3049   13.3947 C.ar    1  LIG1       -0.0570
     30 H           6.4074   13.0583   13.0649 H       1  LIG1        0.0621
     31 C          10.0160   12.0917    3.4553 C.ar    2  LIG2       -0.0503
     32 C          11.6160   12.4749   11.4556 C.ar    1  LIG1        0.1087
     33 C          10.3289   13.4228    2.8126 C.3     2  LIG2       -0.0397
     34 H           9.5992   13.6739    2.2087 H       2  LIG2        0.0278
     35 H          11.1639   13.3524    2.3043 H       2  LIG2        0.0278
     36 H          10.4267   14.1061    3.5079 H       2  LIG2        0.0278
     37 C          11.0855    9.1204   17.4366 C.3     1  LIG1       -0.0385
     38 H          10.3543    8.5494   17.7535 H       1  LIG1        0.0255
     39 H          11.3322    9.7556   18.1404 H       1  LIG1        0.0255
     40 H          11.8598    8.5632   17.2110 H       1  LIG1        0.0255
     41 C          11.0183   11.2506    3.9223 C.ar    2  LIG2       -0.0570
     42 H          11.9261   11.5221    3.8477 H       2  LIG2        0.0621
     43 C           8.0346    4.3611   17.0125 C.ar    1  LIG1       -0.0575
     44 H           7.9736    3.4490   17.2709 H       1  LIG1        0.0619
     45 C           9.3416    8.6051    7.8465 C.3     2  LIG2        0.0373
     46 H           8.8801    9.2660    8.4220 H       2  LIG2        0.0483
     47 H          10.1241    9.0572    7.4412 H       2  LIG2        0.0483
     48 C           6.0563    3.1068    8.3826 C.ar    2  LIG2        0.0204
     49 C           8.2511   12.2243   13.2150 C.ar    1  LIG1       -0.0383
     50 H           8.7046   12.9311   12.7708 H       1  LIG1        0.0637
     51 C           6.3461    9.4465    6.7329 C.ar    2  LIG2       -0.0383
     52 H           6.8497   10.1976    6.4418 H       2  LIG2        0.0637
     53 C           5.6274    1.4422   10.0696 C.ar    2  LIG2       -0.0575
     54 H           5.4841    0.5340   10.3109 H       2  LIG2        0.0619
     55 C           2.7156    8.5859    7.4740 C.3     2  LIG2       -0.0397
     56 H           2.4038    9.4329    7.0928 H       2  LIG2        0.0278
     57 H           2.4747    8.5460    8.4220 H       2  LIG2        0.0278
     58 H           2.2956    7.8398    6.9972 H       2  LIG2        0.0278
     59 C           6.6446    4.8088    6.7605 C.2     2  LIG2       -0.0075
     60 H           6.7711    5.0856    5.8607 H       2  LIG2        0.0641
     61 C           6.8519    5.7950    7.8765 C.3     2  LIG2        0.2617
     62 C           8.9665    7.7485   13.6987 C.2     1  LIG1       -0.0075
     63 H           9.1290    8.0158   12.8022 H       1  LIG1        0.0641
     64 C          10.6382    9.8762   16.2109 C.3     1  LIG1        0.0623
     65 H           9.8192   10.4081   16.4243 H       1  LIG1        0.0595
     66 C           8.7086    6.5905    9.2477 C.3     2  LIG2        0.0623
     67 H           7.9670    7.1684    9.5885 H       2  LIG2        0.0595
     68 C           8.7284    6.4692   13.9662 C.2     1  LIG1       -0.0484
     69 H           8.7545    5.8308   13.2634 H       1  LIG1        0.0624
     70 C          12.3313   14.9513   10.3668 C.ar    1  LIG1       -0.0503
     71 C          13.2505   14.1822   11.0761 C.ar    1  LIG1       -0.0570
     72 H          14.1345   14.5079   11.1946 H       1  LIG1        0.0621
     73 C           8.4265    6.0310   15.3198 C.ar    1  LIG1        0.0204
     74 C          12.7402   16.2629    9.7412 C.3     1  LIG1       -0.0397
     75 H          12.8886   16.9287   10.4451 H       1  LIG1        0.0278
     76 H          12.0293   16.5734    9.1416 H       1  LIG1        0.0278
     77 H          13.5665   16.1369    9.2301 H       1  LIG1        0.0278
     78 C           6.9314   10.1949   14.5076 C.ar    1  LIG1       -0.0473
     79 H           6.4707    9.4951   14.9552 H       1  LIG1        0.0626
     80 C          11.0412   14.4544   10.2331 C.ar    1  LIG1       -0.0570
     81 H          10.3943   14.9662    9.7626 H       1  LIG1        0.0621
     82 C           6.0315    4.0762    9.3743 C.ar    2  LIG2        0.1734
     83 C           8.9827    8.7783   14.7922 C.3     1  LIG1        0.2617
     84 C           8.3907   10.4352    4.1388 C.ar    2  LIG2       -0.0348
     85 H           7.4862   10.1533    4.1989 H       2  LIG2        0.0637
     86 C          10.7216   10.0211    4.4971 C.ar    2  LIG2       -0.0348
     87 H          11.4233    9.4643    4.8142 H       2  LIG2        0.0637
     88 C           9.4106    9.6082    4.6073 C.ar    2  LIG2        0.1087
     89 C           6.9970    8.2448    7.0032 C.ar    2  LIG2        0.0610
     90 C           7.5140    7.4800   19.8192 C.3     1  LIG1        0.0790
     91 H           6.7158    6.9190   19.9093 H       1  LIG1        0.0660
     92 H           7.3813    8.3183   20.3062 H       1  LIG1        0.0660
     93 H           8.2886    7.0053   20.1892 H       1  LIG1        0.0660
     94 C           4.7044   11.3529   14.2742 C.3     1  LIG1       -0.0397
     95 H           4.3695   12.2325   14.0001 H       1  LIG1        0.0278
     96 H           4.5090   11.2110   15.2236 H       1  LIG1        0.0278
     97 H           4.2680   10.6559   13.7431 H       1  LIG1        0.0278
     98 C           8.2164    7.0193   16.2723 C.ar    1  LIG1        0.1734
     99 C           5.8169    3.7475   10.7116 C.ar    2  LIG2        0.1622
    100 C          12.9047   12.9528   11.6101 C.ar    1  LIG1       -0.0348
    101 H          13.5503   12.4389   12.0798 H       1  LIG1        0.0637
    102 C           5.6173    4.5088   12.9607 C.3     2  LIG2        0.0790
    103 H           4.7067    4.1637   13.0778 H       2  LIG2        0.0660
    104 H           5.7283    5.3254   13.4904 H       2  LIG2        0.0660
    105 H           6.2630    3.8343   13.2591 H       2  LIG2        0.0660
    106 C           6.2665    7.1698    7.5201 C.ar    2  LIG2        0.0505
    107 C           8.9801   11.1254   13.6718 C.ar    1  LIG1        0.0610
    108 C          11.7118   10.7903   15.6615 C.3     1  LIG1       -0.0092
    109 H          12.4220   10.2392   15.2479 H       1  LIG1        0.0306
    110 H          12.1186   11.2940   16.4100 H       1  LIG1        0.0306
    111 C          11.1912   11.7797   14.6271 C.3     1  LIG1        0.0373
    112 H          10.6159   12.4445   15.0823 H       1  LIG1        0.0483
    113 H          11.9592   12.2655   14.2342 H       1  LIG1        0.0483
    114 C           8.3083   10.0815   14.3333 C.ar    1  LIG1        0.0505
    115 C           9.8365    7.4603    8.7180 C.3     2  LIG2       -0.0092
    116 H          10.4569    6.8972    8.1893 H       2  LIG2        0.0306
    117 H          10.3437    7.8323    9.4828 H       2  LIG2        0.0306
    118 C           7.9086    6.6956   17.5977 C.ar    1  LIG1        0.1622
    119 C          10.6772   13.2363   10.7665 C.ar    1  LIG1       -0.0348
    120 H           9.7870   12.9178   10.6635 H       1  LIG1        0.0637
    121 C           9.1720    5.6531   10.3394 C.3     2  LIG2       -0.0385
    122 H           8.4037    5.1610   10.6949 H       2  LIG2        0.0255
    123 H           9.5895    6.1711   11.0604 H       2  LIG2        0.0255
    124 H           9.8248    5.0204    9.9725 H       2  LIG2        0.0255
    125 C           7.8131    5.3623   17.9562 C.ar    1  LIG1       -0.0163
    126 H           7.5946    5.1270   18.8500 H       1  LIG1        0.0655
    127 C           5.6126    2.4159   11.0533 C.ar    2  LIG2       -0.0163
    128 H           5.4649    2.1759   11.9613 H       2  LIG2        0.0655
@<TRIPOS>BOND
     1    34    33    1
     2    35    33    1
     3    33    31    1
     4    33    36    1
     5    19    18    1
     6    31    18   ar
     7    31    41   ar
     8    18    84   ar
     9    42    41    1
    10    41    86   ar
    11    84    85    1
    12    84    88   ar
    13     5     2    2
    14    86    88   ar
    15    86    87    1
    16    88     2    1
    17     2    10    2
    18     2    13    1
    19    60    59    1
    20    26    25    1
    21    52    51    1
    22    16    15    1
    23    51    15   ar
    24    51    89   ar
    25    59    25    2
    26    59    61    1
    27    13    89    1
    28    13    45    1
    29    15    17   ar
    30    58    55    1
    31    89   106   ar
    32    25    48    1
    33    56    55    1
    34    17    55    1
    35    17    20   ar
    36    47    45    1
    37    55    57    1
    38   106    20   ar
    39   106    61    1
    40    20    21    1
    41    45    46    1
    42    45   115    1
    43    61     9    1
    44    61     4    1
    45    23    22    1
    46     9    66    1
    47   116   115    1
    48    48    22   ar
    49    48    82   ar
    50   115    66    1
    51   115   117    1
    52    22    53   ar
    53     4    82    1
    54    76    74    1
    55    77    74    1
    56    66    67    1
    57    66   121    1
    58    82    99   ar
    59    74    70    1
    60    74    75    1
    61    81    80    1
    62   124   121    1
    63    53    54    1
    64    53   127   ar
    65    80    70   ar
    66    80   119   ar
    67   121   122    1
    68   121   123    1
    69    70    71   ar
    70   120   119    1
    71    99   127   ar
    72    99     7    1
    73   119    32   ar
    74   127   128    1
    75    71    72    1
    76    71   100   ar
    77     6     1    2
    78    32   100   ar
    79    32     1    1
    80     7   102    1
    81   100   101    1
    82     1     3    2
    83     1    14    1
    84    50    49    1
    85    63    62    1
    86   102   103    1
    87   102   105    1
    88   102   104    1
    89    30    29    1
    90    49    29   ar
    91    49   107   ar
    92    69    68    1
    93    29    24   ar
    94    14   107    1
    95    14   111    1
    96   107   114   ar
    97    62    68    2
    98    62    83    1
    99    97    94    1
   100    68    73    1
   101    95    94    1
   102    24    94    1
   103    24    78   ar
   104   113   111    1
   105    94    96    1
   106   114    78   ar
   107   114    83    1
   108    78    79    1
   109   111   112    1
   110   111   108    1
   111    83     8    1
   112    83    11    1
   113    28    27    1
   114     8    64    1
   115   109   108    1
   116    73    27   ar
   117    73    98   ar
   118   108    64    1
   119   108   110    1
   120    27    43   ar
   121    11    98    1
   122    64    65    1
   123    64    37    1
   124    98   118   ar
   125    43    44    1
   126    43   125   ar
   127    40    37    1
   128    37    38    1
   129    37    39    1
   130   118   125   ar
   131   118    12    1
   132   125   126    1
   133    12    90    1
   134    90    91    1
   135    90    93    1
   136    90    92    1
