@<TRIPOS>MOLECULE
C27 H21 N O
 50 55 0 0 0
SMALL
GASTEIGER

@<TRIPOS>ATOM
      1 O           1.4577    1.3348    7.9317 O.3     1  LIG1       -0.3462
      2 N           5.4156   -1.0395    8.6336 N.1     1  LIG1       -0.1958
      3 C           4.2470    2.3426    6.3339 C.3     1  LIG1       -0.0263
      4 H           4.0351    2.6077    5.4470 H       1  LIG1        0.0311
      5 C           5.4359    2.9491    6.9991 C.3     1  LIG1       -0.0492
      6 H           5.3994    3.9292    6.8650 H       1  LIG1        0.0268
      7 H           6.2498    2.6181    6.5429 H       1  LIG1        0.0268
      8 C           5.5773    2.6808    8.4591 C.3     1  LIG1       -0.0512
      9 H           5.8597    3.5163    8.9074 H       1  LIG1        0.0266
     10 H           6.2965    2.0132    8.5886 H       1  LIG1        0.0266
     11 C           4.3178    2.1715    9.1335 C.3     1  LIG1       -0.0305
     12 H           3.6501    2.9009    9.1818 H       1  LIG1        0.0282
     13 H           4.5298    1.8879   10.0576 H       1  LIG1        0.0282
     14 C           3.7331    1.0002    8.3661 C.3     1  LIG1        0.1043
     15 C           2.2823    0.5013    8.7671 C.3     1  LIG1        0.1401
     16 C           2.0961   -0.8500    8.0623 C.ar    1  LIG1       -0.0036
     17 C           2.0111   -2.1490    8.4853 C.ar    1  LIG1       -0.0551
     18 H           2.0586   -2.3675    9.4085 H       1  LIG1        0.0621
     19 C           1.8526   -3.1476    7.5135 C.ar    1  LIG1       -0.0614
     20 H           1.7911   -4.0570    7.7818 H       1  LIG1        0.0618
     21 C           1.7849   -2.8238    6.1614 C.ar    1  LIG1       -0.0614
     22 H           1.7030   -3.5147    5.5143 H       1  LIG1        0.0618
     23 C           1.8360   -1.4830    5.7472 C.ar    1  LIG1       -0.0551
     24 H           1.7688   -1.2508    4.8291 H       1  LIG1        0.0621
     25 C           1.9855   -0.5230    6.7067 C.ar    1  LIG1       -0.0045
     26 C           2.0471    0.9986    6.6302 C.3     1  LIG1        0.1293
     27 C           3.4762    1.4501    6.9327 C.3     1  LIG1        0.0436
     28 C           4.6938   -0.1486    8.4871 C.1     1  LIG1        0.0735
     29 C           1.9340    0.6097   10.2184 C.ar    1  LIG1       -0.0099
     30 C           0.8781    1.3890   10.6611 C.ar    1  LIG1       -0.0555
     31 H           0.3380    1.8574   10.0362 H       1  LIG1        0.0621
     32 C           0.6100    1.4854   12.0224 C.ar    1  LIG1       -0.0614
     33 H          -0.1100    2.0277   12.3201 H       1  LIG1        0.0618
     34 C           1.3753    0.8042   12.9439 C.ar    1  LIG1       -0.0617
     35 H           1.1831    0.8733   13.8713 H       1  LIG1        0.0618
     36 C           2.4286    0.0161   12.5052 C.ar    1  LIG1       -0.0614
     37 H           2.9617   -0.4571   13.1335 H       1  LIG1        0.0618
     38 C           2.7035   -0.0803   11.1560 C.ar    1  LIG1       -0.0555
     39 H           3.4254   -0.6226   10.8627 H       1  LIG1        0.0621
     40 C           1.3170    1.6429    5.4941 C.ar    1  LIG1       -0.0108
     41 C           0.0549    2.1884    5.6804 C.ar    1  LIG1       -0.0555
     42 H          -0.3646    2.1361    6.5314 H       1  LIG1        0.0621
     43 C          -0.5975    2.8110    4.6211 C.ar    1  LIG1       -0.0614
     44 H          -1.4623    3.1813    4.7519 H       1  LIG1        0.0618
     45 C          -0.0005    2.8953    3.3848 C.ar    1  LIG1       -0.0617
     46 H          -0.4413    3.3460    2.6750 H       1  LIG1        0.0618
     47 C           1.2411    2.3233    3.1748 C.ar    1  LIG1       -0.0614
     48 H           1.6481    2.3691    2.3168 H       1  LIG1        0.0618
     49 C           1.8957    1.6798    4.2281 C.ar    1  LIG1       -0.0555
     50 H           2.7378    1.2661    4.0799 H       1  LIG1        0.0621
@<TRIPOS>BOND
     1    48    47    1
     2    46    45    1
     3    47    45   ar
     4    47    49   ar
     5    45    43   ar
     6    50    49    1
     7    49    40   ar
     8    43    44    1
     9    43    41   ar
    10    24    23    1
    11     4     3    1
    12    40    41   ar
    13    40    26    1
    14    22    21    1
    15    41    42    1
    16    23    21   ar
    17    23    25   ar
    18    21    19   ar
    19     3    27    1
    20     3     5    1
    21     7     5    1
    22    26    25    1
    23    26    27    1
    24    26     1    1
    25    25    16   ar
    26     6     5    1
    27    27    14    1
    28     5     8    1
    29    19    20    1
    30    19    17   ar
    31     1    15    1
    32    16    17   ar
    33    16    15    1
    34    14    28    1
    35    14    15    1
    36    14    11    1
    37     8    10    1
    38     8     9    1
    39     8    11    1
    40    17    18    1
    41    28     2    3
    42    15    29    1
    43    11    12    1
    44    11    13    1
    45    31    30    1
    46    29    30   ar
    47    29    38   ar
    48    30    32   ar
    49    39    38    1
    50    38    36   ar
    51    32    33    1
    52    32    34   ar
    53    36    34   ar
    54    36    37    1
    55    34    35    1
