@<TRIPOS>MOLECULE
(2'S,3R,3'S)-3'-(2-Bromophenyl)-1''-phenyldispiro[indoline-3,1'-cyclopropane-2',3''-pyrrolidine]-2,4'',5''-trione
 48 53 0 0 0
SMALL
GASTEIGER

@<TRIPOS>ATOM
      1 BR          6.4401    9.5653    5.4980 Br      1  LIG1       -0.0500
      2 O           7.1878    5.5094    3.8224 O.2     1  LIG1       -0.2664
      3 O           6.0894    7.4942    2.1038 O.2     1  LIG1       -0.2865
      4 O           1.4110    7.6988    4.6835 O.2     1  LIG1       -0.2744
      5 N           5.3383    6.0179    5.1427 N.am    1  LIG1       -0.2641
      6 N           1.0715    7.1271    2.4828 N.am    1  LIG1       -0.2845
      7 H           0.3135    6.7305    2.5693 H       1  LIG1        0.1548
      8 C           4.6786   10.2798    5.7209 C.ar    1  LIG1        0.0214
      9 C           4.4521   11.0823    6.8147 C.ar    1  LIG1       -0.0475
     10 H           5.1641   11.2978    7.4064 H       1  LIG1        0.0629
     11 C           3.1723   11.5776    7.0482 C.ar    1  LIG1       -0.0607
     12 H           2.9985   12.1232    7.8066 H       1  LIG1        0.0618
     13 C           2.1470   11.2631    6.1528 C.ar    1  LIG1       -0.0614
     14 H           1.2683   11.5886    6.3103 H       1  LIG1        0.0618
     15 C           2.3986   10.4797    5.0343 C.ar    1  LIG1       -0.0572
     16 H           1.6955   10.2915    4.4240 H       1  LIG1        0.0621
     17 C           3.6788    9.9652    4.7990 C.ar    1  LIG1       -0.0280
     18 C           3.9943    9.1319    3.6030 C.3     1  LIG1        0.0198
     19 H           4.5975    9.5960    2.9552 H       1  LIG1        0.0373
     20 C           4.3252    7.6577    3.7616 C.3     1  LIG1        0.0808
     21 C           4.1518    6.9007    5.0731 C.3     1  LIG1        0.0349
     22 H           4.1296    7.5243    5.8414 H       1  LIG1        0.0479
     23 H           3.3161    6.3693    5.0665 H       1  LIG1        0.0479
     24 C           6.1558    6.1129    4.0666 C.2     1  LIG1        0.2870
     25 C           5.5538    7.1579    3.1332 C.2     1  LIG1        0.2272
     26 C           5.4603    5.0987    6.2127 C.ar    1  LIG1        0.0367
     27 C           4.4775    5.0737    7.2007 C.ar    1  LIG1       -0.0403
     28 H           3.7669    5.7042    7.1855 H       1  LIG1        0.0636
     29 C           4.5461    4.1184    8.2098 C.ar    1  LIG1       -0.0600
     30 H           3.8734    4.1013    8.8810 H       1  LIG1        0.0618
     31 C           5.5624    3.2027    8.2566 C.ar    1  LIG1       -0.0616
     32 H           5.5923    2.5544    8.9496 H       1  LIG1        0.0618
     33 C           6.5293    3.2306    7.3003 C.ar    1  LIG1       -0.0600
     34 H           7.2316    2.5911    7.3257 H       1  LIG1        0.0618
     35 C           6.5045    4.1831    6.2823 C.ar    1  LIG1       -0.0403
     36 H           7.2007    4.2060    5.6368 H       1  LIG1        0.0636
     37 C           1.7556    7.6650    3.5122 C.2     1  LIG1        0.2294
     38 C           3.0799    8.1456    2.9393 C.3     1  LIG1        0.0964
     39 C           2.9536    7.9281    1.4666 C.ar    1  LIG1       -0.0096
     40 C           3.7360    8.2779    0.3843 C.ar    1  LIG1       -0.0558
     41 H           4.5545    8.7444    0.5066 H       1  LIG1        0.0621
     42 C           3.2986    7.9296   -0.8946 C.ar    1  LIG1       -0.0614
     43 H           3.8259    8.1623   -1.6492 H       1  LIG1        0.0618
     44 C           2.0965    7.2432   -1.0814 C.ar    1  LIG1       -0.0600
     45 H           1.8258    6.9943   -1.9572 H       1  LIG1        0.0618
     46 C           1.2929    6.9213    0.0062 C.ar    1  LIG1       -0.0402
     47 H           0.4689    6.4639   -0.1110 H       1  LIG1        0.0636
     48 C           1.7289    7.2873    1.2551 C.ar    1  LIG1        0.0376
@<TRIPOS>BOND
     1    45    44    1
     2    43    42    1
     3    44    42   ar
     4    44    46   ar
     5    42    40   ar
     6    47    46    1
     7    46    48   ar
     8    40    41    1
     9    40    39   ar
    10    48    39   ar
    11    48     6    1
    12    39    38    1
    13     3    25    2
    14     6     7    1
    15     6    37   am
    16    38    37    1
    17    38    18    1
    18    38    20    1
    19    19    18    1
    20    25    20    1
    21    25    24    1
    22    37     4    2
    23    18    20    1
    24    18    17    1
    25    20    21    1
    26     2    24    2
    27    24     5   am
    28    16    15    1
    29    17    15   ar
    30    17     8   ar
    31    15    13   ar
    32    23    21    1
    33    21     5    1
    34    21    22    1
    35     5    26    1
    36     1     8    1
    37    36    35    1
    38     8     9   ar
    39    13    14    1
    40    13    11   ar
    41    26    35   ar
    42    26    27   ar
    43    35    33   ar
    44     9    11   ar
    45     9    10    1
    46    11    12    1
    47    28    27    1
    48    27    29   ar
    49    33    34    1
    50    33    31   ar
    51    29    31   ar
    52    29    30    1
    53    31    32    1
