@<TRIPOS>MOLECULE
C15 H12 N2 O3, C H Cl3
 37 38 0 0 0
SMALL
GASTEIGER

@<TRIPOS>ATOM
      1 CL         10.6702   10.0267    7.9703 Cl      1  LIG1       -0.0870
      2 CL          9.5938    7.3750    7.7852 Cl      1  LIG1       -0.0870
      3 CL          9.5391    8.7672   10.3089 Cl      1  LIG1       -0.0870
      4 O           2.6932    3.2038    2.2207 O.3     2  LIG2       -0.4410
      5 O           4.6076    7.5740    2.6352 O.3     2  LIG2       -0.4501
      6 O           4.9619    9.7745    2.6858 O.2     2  LIG2       -0.2456
      7 N           0.1815    5.9800    5.1045 N.1     2  LIG2       -0.1910
      8 N           1.2273    2.8004    3.8256 N.pl3   2  LIG2       -0.3284
      9 H           1.3363    1.9741    3.6135 H       2  LIG2        0.1451
     10 H           0.6859    3.0145    4.4587 H       2  LIG2        0.1451
     11 C           2.7175    6.0619    2.6102 C.3     2  LIG2        0.0705
     12 H           2.1647    6.8356    2.3746 H       2  LIG2        0.0449
     13 C           0.9296    5.5793    4.3378 C.1     2  LIG2        0.1006
     14 C           1.8564    5.0949    3.3884 C.2     2  LIG2        0.0978
     15 C           1.8999    3.7514    3.1724 C.2     2  LIG2        0.1983
     16 C           3.1698    5.4065    1.3257 C.ar    2  LIG2        0.0073
     17 C           3.9266    6.5741    3.4505 C.3     2  LIG2        0.1413
     18 C           3.1662    4.0393    1.2022 C.ar    2  LIG2        0.1340
     19 C           4.5131    8.7908    3.2142 C.2     2  LIG2        0.3326
     20 C           3.4899    7.3690    4.6398 C.2     2  LIG2       -0.0335
     21 H           3.0470    7.0192    5.3792 H       2  LIG2        0.0614
     22 C           4.0977    4.1274   -0.9797 C.ar    2  LIG2       -0.0583
     23 H           4.4270    3.7035   -1.7391 H       2  LIG2        0.0619
     24 C           3.6184    3.3800    0.0729 C.ar    2  LIG2       -0.0190
     25 H           3.5998    2.4511    0.0255 H       2  LIG2        0.0654
     26 C           3.6196    6.1388    0.2269 C.ar    2  LIG2       -0.0543
     27 H           3.6053    7.0687    0.2584 H       2  LIG2        0.0622
     28 C           3.8208    8.6318    4.4919 C.2     2  LIG2        0.0223
     29 H           3.6444    9.3122    5.1008 H       2  LIG2        0.0687
     30 C           4.9106    5.4755    3.8041 C.3     2  LIG2       -0.0202
     31 H           5.1777    5.0154    3.0046 H       2  LIG2        0.0272
     32 H           4.4951    4.8554    4.4065 H       2  LIG2        0.0272
     33 H           5.6829    5.8607    4.2246 H       2  LIG2        0.0272
     34 C           4.0881    5.5023   -0.9085 C.ar    2  LIG2       -0.0613
     35 H           4.3981    6.0048   -1.6271 H       2  LIG2        0.0618
     36 C          10.4304    8.5158    8.8219 C.3     1  LIG1        0.1805
     37 H          11.3091    8.1442    9.0460 H       1  LIG1        0.0806
@<TRIPOS>BOND
     1    23    22    1
     2    35    34    1
     3    22    34   ar
     4    22    24   ar
     5    34    26   ar
     6    25    24    1
     7    24    18   ar
     8    26    27    1
     9    26    16   ar
    10    18    16   ar
    11    18     4    1
    12    16    11    1
    13     4    15    1
    14    12    11    1
    15    11    14    1
    16    11    17    1
    17     5    19    1
    18     5    17    1
    19     6    19    2
    20    31    30    1
    21    15    14    2
    22    15     8    1
    23    19    28    1
    24    14    13    1
    25    17    30    1
    26    17    20    1
    27     9     8    1
    28    30    33    1
    29    30    32    1
    30     8    10    1
    31    13     7    3
    32    28    20    2
    33    28    29    1
    34    20    21    1
    35     2    36    1
    36     1    36    1
    37    36    37    1
    38    36     3    1
