@<TRIPOS>MOLECULE
C23 H18 Cl N O2 S
 46 49 0 0 0
SMALL
GASTEIGER

@<TRIPOS>ATOM
      1 CL          3.3439    5.6217   13.2643 Cl      1  LIG1       -0.0835
      2 S           7.2301   11.3087    9.3039 S.O2    1  LIG1       -0.0033
      3 O           7.8675   11.5717   10.5567 O.2     1  LIG1       -0.1695
      4 O           8.0735   11.2461    8.1464 O.2     1  LIG1       -0.1695
      5 N           4.9800    8.1476    8.2296 N.ar    1  LIG1       -0.2447
      6 C           3.6464    6.5783    9.4254 C.ar    1  LIG1       -0.0343
      7 H           3.2911    6.2698    8.6001 H       1  LIG1        0.0639
      8 C           3.2478    6.0008   10.5879 C.ar    1  LIG1       -0.0413
      9 H           2.5968    5.3089   10.5809 H       1  LIG1        0.0633
     10 C           3.8086    6.4374   11.8054 C.ar    1  LIG1        0.0417
     11 C           4.6877    7.4768   11.8622 C.ar    1  LIG1       -0.0336
     12 H           5.0411    7.7617   12.6967 H       1  LIG1        0.0639
     13 C           5.8896    9.2989   10.6455 C.ar    1  LIG1        0.0182
     14 C           6.2797    9.7909    9.4125 C.ar    1  LIG1        0.1220
     15 C           5.8198    9.1589    8.2036 C.ar    1  LIG1        0.0970
     16 C           4.5864    7.6362    9.4332 C.ar    1  LIG1        0.0725
     17 C           5.0698    8.1290   10.6629 C.ar    1  LIG1        0.0113
     18 C           6.1653    9.9454   11.9645 C.ar    1  LIG1       -0.0154
     19 C           7.2495    9.5654   12.7387 C.ar    1  LIG1       -0.0540
     20 H           7.8558    8.9101   12.4142 H       1  LIG1        0.0624
     21 C           7.4522   10.1369   13.9833 C.ar    1  LIG1       -0.0612
     22 H           8.2035    9.8820   14.5062 H       1  LIG1        0.0618
     23 C           6.5620   11.0786   14.4654 C.ar    1  LIG1       -0.0617
     24 H           6.7030   11.4743   15.3176 H       1  LIG1        0.0618
     25 C           5.4672   11.4433   13.7065 C.ar    1  LIG1       -0.0612
     26 H           4.8522   12.0850   14.0420 H       1  LIG1        0.0618
     27 C           5.2609   10.8778   12.4562 C.ar    1  LIG1       -0.0540
     28 H           4.5040   11.1272   11.9389 H       1  LIG1        0.0624
     29 C           5.9771   12.5059    9.0556 C.3     1  LIG1        0.0597
     30 H           6.3866   13.3894    8.9457 H       1  LIG1        0.0468
     31 H           5.3782   12.5178    9.8313 H       1  LIG1        0.0468
     32 H           5.4650   12.2808    8.2510 H       1  LIG1        0.0468
     33 C           6.1898    9.5915    6.8167 C.ar    1  LIG1        0.0023
     34 C           5.3479   10.4289    6.1026 C.ar    1  LIG1       -0.0523
     35 H           4.5585   10.7646    6.5106 H       1  LIG1        0.0624
     36 C           5.6517   10.7800    4.7947 C.ar    1  LIG1       -0.0582
     37 H           5.0664   11.3587    4.3205 H       1  LIG1        0.0620
     38 C           6.7937   10.3025    4.1653 C.ar    1  LIG1       -0.0504
     39 C           7.6141    9.4416    4.8811 C.ar    1  LIG1       -0.0582
     40 H           8.3914    9.0878    4.4648 H       1  LIG1        0.0620
     41 C           7.3256    9.0861    6.1896 C.ar    1  LIG1       -0.0523
     42 H           7.9037    8.4966    6.6594 H       1  LIG1        0.0624
     43 C           7.1369   10.7051    2.7545 C.3     1  LIG1       -0.0397
     44 H           6.5154   10.2744    2.1313 H       1  LIG1        0.0278
     45 H           8.0530   10.4242    2.5486 H       1  LIG1        0.0278
     46 H           7.0662   11.6785    2.6662 H       1  LIG1        0.0278
@<TRIPOS>BOND
     1    44    43    1
     2    45    43    1
     3    46    43    1
     4    43    38    1
     5    38    36   ar
     6    38    39   ar
     7    37    36    1
     8    40    39    1
     9    36    34   ar
    10    39    41   ar
    11    34    35    1
    12    34    33   ar
    13    41    42    1
    14    41    33   ar
    15    33    15    1
    16     4     2    2
    17    15     5   ar
    18    15    14   ar
    19     5    16   ar
    20    32    29    1
    21     7     6    1
    22    30    29    1
    23    29     2    1
    24    29    31    1
    25     2    14    1
    26     2     3    2
    27    14    13   ar
    28     6    16   ar
    29     6     8   ar
    30    16    17   ar
    31     9     8    1
    32     8    10   ar
    33    13    17   ar
    34    13    18    1
    35    17    11   ar
    36    10    11   ar
    37    10     1    1
    38    11    12    1
    39    28    27    1
    40    18    27   ar
    41    18    19   ar
    42    20    19    1
    43    27    25   ar
    44    19    21   ar
    45    25    26    1
    46    25    23   ar
    47    21    23   ar
    48    21    22    1
    49    23    24    1
