@<TRIPOS>MOLECULE
7157366.cif
 26 27 0 0 0
SMALL
GASTEIGER

@<TRIPOS>ATOM
      1 N           4.9317    6.0661    0.0043 N.am    1  LIG1       -0.2863
      2 N           4.1553    7.9857    0.9858 N.2     1  LIG1       -0.2531
      3 O           6.2147    5.2884    1.7434 O.2     1  LIG1       -0.2685
      4 C           5.4637    6.1070    1.2170 C.2     1  LIG1        0.2643
      5 C           4.9240    7.3859    1.8048 C.2     1  LIG1        0.1296
      6 C           4.0834    7.2220   -0.2578 C.3     1  LIG1        0.1218
      7 C           4.6380    8.0694   -1.3854 C.3     1  LIG1       -0.0234
      8 H           5.5455    8.3127   -1.1862 H       1  LIG1        0.0269
      9 H           4.1079    8.8640   -1.4788 H       1  LIG1        0.0269
     10 H           4.6126    7.5687   -2.2037 H       1  LIG1        0.0269
     11 C           2.6511    6.8072   -0.5188 C.3     1  LIG1       -0.0234
     12 H           2.6115    6.2799   -1.3199 H       1  LIG1        0.0269
     13 H           2.1048    7.5899   -0.6222 H       1  LIG1        0.0269
     14 H           2.3283    6.2882    0.2210 H       1  LIG1        0.0269
     15 C           5.2397    7.9049    3.1443 C.ar    1  LIG1        0.0051
     16 C           6.4180    7.5982    3.7891 C.ar    1  LIG1       -0.0524
     17 H           7.0201    7.0091    3.3957 H       1  LIG1        0.0624
     18 C           6.7114    8.1569    5.0142 C.ar    1  LIG1       -0.0611
     19 H           7.5188    7.9605    5.4307 H       1  LIG1        0.0618
     20 C           5.8240    8.9958    5.6160 C.ar    1  LIG1       -0.0617
     21 H           6.0225    9.3673    6.4463 H       1  LIG1        0.0618
     22 C           4.6476    9.2908    5.0020 C.ar    1  LIG1       -0.0611
     23 H           4.0344    9.8513    5.4211 H       1  LIG1        0.0618
     24 C           4.3581    8.7653    3.7657 C.ar    1  LIG1       -0.0524
     25 H           3.5611    8.9912    3.3433 H       1  LIG1        0.0624
     26 H           5.0822    5.4299   -0.6144 H       1  LIG1        0.1513
@<TRIPOS>BOND
     1    10     7    1
     2     9     7    1
     3     7     8    1
     4     7     6    1
     5    12    11    1
     6    13    11    1
     7    26     1    1
     8    11     6    1
     9    11    14    1
    10     6     1    1
    11     6     2    1
    12     1     4   am
    13     2     5    2
    14     4     3    2
    15     4     5    1
    16     5    15    1
    17    15    24   ar
    18    15    16   ar
    19    25    24    1
    20    17    16    1
    21    24    22   ar
    22    16    18   ar
    23    22    23    1
    24    22    20   ar
    25    18    19    1
    26    18    20   ar
    27    20    21    1
