@<TRIPOS>MOLECULE
C53 H43 N7
 103 108 0 0 0
SMALL
GASTEIGER

@<TRIPOS>ATOM
      1 N          16.8828    2.6746    4.0762 N.1     1  LIG1       -0.1948
      2 N          14.5459   -0.7185    4.0478 N.1     1  LIG1       -0.1948
      3 N          10.2854   -0.9919   -0.3832 N.1     1  LIG1       -0.1901
      4 N           6.3884   -0.1012   -1.7374 N.1     1  LIG1       -0.1901
      5 N           8.6530    3.1551    4.2775 N.1     1  LIG1       -0.1901
      6 N           6.0225    5.6440    2.3312 N.1     1  LIG1       -0.1901
      7 N           3.3347    3.8561   -2.9239 N.pl3   1  LIG1       -0.3360
      8 C          13.7314    3.9234    2.5424 C.ar    1  LIG1       -0.0253
      9 C          14.7558    4.8502    2.7288 C.ar    1  LIG1       -0.0570
     10 C          14.7866    5.9736    1.9144 C.ar    1  LIG1       -0.0614
     11 C          13.8426    6.1674    0.9249 C.ar    1  LIG1       -0.0612
     12 C          12.8100    5.2469    0.7336 C.ar    1  LIG1       -0.0537
     13 C          12.7405    4.1416    1.5695 C.ar    1  LIG1       -0.0128
     14 C          11.7260    3.0777    1.7022 C.ar    1  LIG1       -0.0048
     15 C          10.5563    2.8764    0.9876 C.ar    1  LIG1       -0.0018
     16 C           9.7047    1.8397    1.4282 C.ar    1  LIG1       -0.0038
     17 C          10.0104    1.0171    2.5141 C.ar    1  LIG1       -0.0374
     18 C          11.2413    1.1897    3.1917 C.ar    1  LIG1       -0.0240
     19 C          12.1018    2.2088    2.7468 C.ar    1  LIG1       -0.0201
     20 C          13.4774    2.5990    3.1596 C.3     1  LIG1        0.0721
     21 C          14.4616    1.8297    3.7017 C.3     1  LIG1        0.1896
     22 C          15.7976    2.3302    3.9042 C.1     1  LIG1        0.0882
     23 C          14.4080    0.4139    3.9313 C.1     1  LIG1        0.0882
     24 C           8.9722    0.0338    3.0098 C.3     1  LIG1       -0.0388
     25 C           8.4104    1.6981    0.6886 C.2     1  LIG1        0.0203
     26 C           8.3082    0.6587   -0.1828 C.2     1  LIG1        0.1365
     27 C           9.4211   -0.2507   -0.3018 C.1     1  LIG1        0.1108
     28 C           7.1914    0.3003   -1.0227 C.1     1  LIG1        0.1108
     29 C           7.3557    2.7095    0.9043 C.2     1  LIG1        0.0195
     30 C           7.3374    3.4461    2.0737 C.2     1  LIG1        0.1364
     31 C           8.1063    3.2199    3.2706 C.1     1  LIG1        0.1108
     32 C           6.5451    4.6361    2.1889 C.1     1  LIG1        0.1108
     33 C           6.3375    2.9704   -0.1121 C.ar    1  LIG1       -0.0152
     34 C           6.6408    3.1095   -1.4755 C.ar    1  LIG1       -0.0522
     35 C           5.6637    3.4020   -2.3998 C.ar    1  LIG1       -0.0401
     36 C           4.3125    3.5660   -2.0153 C.ar    1  LIG1        0.0292
     37 C           4.0072    3.4063   -0.6468 C.ar    1  LIG1       -0.0401
     38 C           4.9958    3.1225    0.2651 C.ar    1  LIG1       -0.0522
     39 C           3.6456    4.1813   -4.2895 C.3     1  LIG1        0.0004
     40 C           1.9526    4.0027   -2.4992 C.3     1  LIG1        0.0004
     41 C          11.5078    0.3707    4.4046 C.3     1  LIG1        0.0489
     42 C          11.4846   -1.0222    4.3348 C.2     1  LIG1       -0.0715
     43 C          11.6604   -1.7860    5.4672 C.2     1  LIG1       -0.0753
     44 C          11.8662   -1.2196    6.7218 C.3     1  LIG1        0.0247
     45 C          11.9002    0.1733    6.7800 C.2     1  LIG1       -0.0753
     46 C          11.7181    0.9526    5.6467 C.2     1  LIG1       -0.0715
     47 C          12.0656   -2.1298    7.9361 C.3     1  LIG1       -0.0241
     48 C          10.8589   -3.0610    8.0720 C.3     1  LIG1       -0.0590
     49 C          12.2116   -1.3613    9.2372 C.3     1  LIG1       -0.0590
     50 C          13.3318   -2.9571    7.7196 C.3     1  LIG1       -0.0590
     51 C          10.2242    3.6100   -0.2694 C.ar    1  LIG1       -0.0167
     52 C          10.6313    3.0645   -1.4870 C.ar    1  LIG1       -0.0537
     53 C          10.3395    3.6924   -2.6851 C.ar    1  LIG1       -0.0575
     54 C           9.6324    4.8935   -2.7234 C.ar    1  LIG1       -0.0419
     55 C           9.2164    5.4223   -1.5066 C.ar    1  LIG1       -0.0575
     56 C           9.5034    4.7963   -0.2997 C.ar    1  LIG1       -0.0537
     57 C           9.3438    5.5696   -4.0681 C.3     1  LIG1       -0.0127
     58 C          10.6804    5.9109   -4.7425 C.3     1  LIG1       -0.0560
     59 C           8.5343    6.8502   -3.9067 C.3     1  LIG1       -0.0560
     60 C           8.5534    4.6028   -4.9634 C.3     1  LIG1       -0.0560
     61 H          15.4172    4.7161    3.3974 H       1  LIG1        0.0621
     62 H          15.4698    6.6216    2.0400 H       1  LIG1        0.0618
     63 H          13.8963    6.9355    0.3683 H       1  LIG1        0.0618
     64 H          12.1681    5.3751    0.0451 H       1  LIG1        0.0624
     65 H           9.1531   -0.8513    2.6301 H       1  LIG1        0.0278
     66 H           8.0809    0.3323    2.7325 H       1  LIG1        0.0278
     67 H           9.0104   -0.0163    3.9878 H       1  LIG1        0.0278
     68 H           7.5386    2.9995   -1.7662 H       1  LIG1        0.0624
     69 H           5.9019    3.4956   -3.3148 H       1  LIG1        0.0636
     70 H           3.1085    3.4959   -0.3526 H       1  LIG1        0.0636
     71 H           4.7622    3.0260    1.1808 H       1  LIG1        0.0624
     72 H           3.8437    3.3588   -4.7841 H       1  LIG1        0.0428
     73 H           4.4264    4.7734   -4.3146 H       1  LIG1        0.0428
     74 H           2.8796    4.6333   -4.7003 H       1  LIG1        0.0428
     75 H           1.8622    4.8127   -1.9550 H       1  LIG1        0.0428
     76 H           1.6892    3.2218   -1.9690 H       1  LIG1        0.0428
     77 H           1.3744    4.0724   -3.2874 H       1  LIG1        0.0428
     78 H          11.3461   -1.4485    3.4971 H       1  LIG1        0.0582
     79 H          11.6405   -2.7325    5.3893 H       1  LIG1        0.0578
     80 H          12.0518    0.5988    7.6157 H       1  LIG1        0.0578
     81 H          11.7375    1.8994    5.7224 H       1  LIG1        0.0582
     82 H          10.0425   -2.5264    8.1652 H       1  LIG1        0.0235
     83 H          10.9704   -3.6272    8.8640 H       1  LIG1        0.0235
     84 H          10.7899   -3.6255    7.2739 H       1  LIG1        0.0235
     85 H          11.4138   -0.8099    9.3818 H       1  LIG1        0.0235
     86 H          13.0023   -0.7851    9.1895 H       1  LIG1        0.0235
     87 H          12.3110   -1.9926    9.9801 H       1  LIG1        0.0235
     88 H          13.4543   -3.5711    8.4736 H       1  LIG1        0.0235
     89 H          14.1061   -2.3592    7.6565 H       1  LIG1        0.0235
     90 H          13.2485   -3.4716    6.8897 H       1  LIG1        0.0235
     91 H          11.1170    2.2481   -1.4938 H       1  LIG1        0.0624
     92 H          10.6274    3.2965   -3.4993 H       1  LIG1        0.0621
     93 H           8.7226    6.2338   -1.5003 H       1  LIG1        0.0621
     94 H           9.2032    5.1844    0.5137 H       1  LIG1        0.0624
     95 H          11.1868    5.0867   -4.8996 H       1  LIG1        0.0238
     96 H          11.1975    6.5060   -4.1603 H       1  LIG1        0.0238
     97 H          10.5101    6.3577   -5.5978 H       1  LIG1        0.0238
     98 H           9.0190    7.4724   -3.3254 H       1  LIG1        0.0238
     99 H           7.6650    6.6389   -3.5060 H       1  LIG1        0.0238
    100 H           8.3969    7.2630   -4.7849 H       1  LIG1        0.0238
    101 H           9.0437    3.7582   -5.0448 H       1  LIG1        0.0238
    102 H           8.4381    5.0004   -5.8516 H       1  LIG1        0.0238
    103 H           7.6744    4.4332   -4.5649 H       1  LIG1        0.0238
@<TRIPOS>BOND
     1   102    60    1
     2    97    58    1
     3   101    60    1
     4    60   103    1
     5    60    57    1
     6    95    58    1
     7   100    59    1
     8    72    39    1
     9    58    96    1
    10    58    57    1
    11    74    39    1
    12    73    39    1
    13    39     7    1
    14    57    59    1
    15    57    54    1
    16    59    99    1
    17    59    98    1
    18    92    53    1
    19    69    35    1
    20    77    40    1
    21     7    40    1
    22     7    36    1
    23    54    53   ar
    24    54    55   ar
    25    53    52   ar
    26    40    76    1
    27    40    75    1
    28    35    36   ar
    29    35    34   ar
    30    36    37   ar
    31    68    34    1
    32     4    28    3
    33    55    93    1
    34    55    56   ar
    35    91    52    1
    36    52    51   ar
    37    34    33   ar
    38    28    26    1
    39    37    70    1
    40    37    38   ar
    41     3    27    3
    42    27    26    1
    43    56    51   ar
    44    56    94    1
    45    51    15    1
    46    26    25    2
    47    33    38   ar
    48    33    29    1
    49    64    12    1
    50    38    71    1
    51    63    11    1
    52    25    29    1
    53    25    16    1
    54    12    11   ar
    55    12    13   ar
    56    29    30    2
    57    11    10   ar
    58    15    16   ar
    59    15    14   ar
    60    16    17   ar
    61    13    14    1
    62    13     8   ar
    63    14    19   ar
    64    10    62    1
    65    10     9   ar
    66    30    32    1
    67    30    31    1
    68    32     6    3
    69    17    24    1
    70    17    18   ar
    71     8     9   ar
    72     8    20    1
    73    65    24    1
    74     9    61    1
    75    66    24    1
    76    19    20    1
    77    19    18   ar
    78    24    67    1
    79    20    21    1
    80    18    41    1
    81    31     5    3
    82    78    42    1
    83    21    22    1
    84    21    23    1
    85    22     1    3
    86    23     2    3
    87    42    41    1
    88    42    43    2
    89    41    46    1
    90    79    43    1
    91    43    44    1
    92    46    81    1
    93    46    45    2
    94    44    45    1
    95    44    47    1
    96    45    80    1
    97    90    50    1
    98    84    48    1
    99    89    50    1
   100    50    47    1
   101    50    88    1
   102    47    48    1
   103    47    49    1
   104    48    82    1
   105    48    83    1
   106    86    49    1
   107    49    85    1
   108    49    87    1
