@<TRIPOS>MOLECULE
C27 H25 N O5 S
 59 63 0 0 0
SMALL
GASTEIGER

@<TRIPOS>ATOM
      1 C          13.6868    9.3317    4.8358 C.2     1  LIG1       -0.0275
      2 C          14.1649    8.1153    4.5427 C.2     1  LIG1        0.0261
      3 C          13.7938    7.1927    5.6599 C.2     1  LIG1        0.1644
      4 C          13.0308    7.9887    6.6931 C.3     1  LIG1        0.0192
      5 H          13.4986    7.9835    7.5426 H       1  LIG1        0.0352
      6 H          12.1437    7.6184    6.8230 H       1  LIG1        0.0352
      7 C          12.9456    9.3973    6.1384 C.3     1  LIG1        0.0154
      8 H          13.3949   10.0213    6.7461 H       1  LIG1        0.0374
      9 C          13.6419   10.5677    3.9864 C.3     1  LIG1        0.1060
     10 H          13.9806   10.3409    3.0954 H       1  LIG1        0.0601
     11 C          11.5319    9.8712    5.8682 C.3     1  LIG1        0.0783
     12 H          11.0465    9.1802    5.3906 H       1  LIG1        0.0587
     13 H          11.0781   10.0288    6.7106 H       1  LIG1        0.0587
     14 C          14.8913    7.6814    3.3401 C.ar    1  LIG1       -0.0145
     15 C          14.6344    6.4415    2.7533 C.ar    1  LIG1       -0.0539
     16 H          14.0147    5.8690    3.1444 H       1  LIG1        0.0624
     17 C          15.2823    6.0564    1.6086 C.ar    1  LIG1       -0.0612
     18 H          15.0914    5.2289    1.2280 H       1  LIG1        0.0618
     19 C          16.2043    6.8737    1.0233 C.ar    1  LIG1       -0.0617
     20 H          16.6356    6.6057    0.2445 H       1  LIG1        0.0618
     21 C          16.4977    8.1067    1.5918 C.ar    1  LIG1       -0.0612
     22 H          17.1327    8.6630    1.2016 H       1  LIG1        0.0618
     23 C          15.8393    8.4994    2.7403 C.ar    1  LIG1       -0.0539
     24 H          16.0344    9.3264    3.1183 H       1  LIG1        0.0624
     25 C          14.4866   11.7139    4.5435 C.ar    1  LIG1       -0.0220
     26 C          15.6888   11.4511    5.1601 C.ar    1  LIG1       -0.0532
     27 H          15.9376   10.5672    5.3071 H       1  LIG1        0.0622
     28 C          16.5375   12.4647    5.5668 C.ar    1  LIG1       -0.0196
     29 H          17.3451   12.2621    5.9811 H       1  LIG1        0.0654
     30 C          16.1760   13.7805    5.3516 C.ar    1  LIG1        0.1201
     31 C          14.9512   14.0594    4.7701 C.ar    1  LIG1       -0.0196
     32 H          14.6880   14.9435    4.6528 H       1  LIG1        0.0654
     33 C          14.1226   13.0446    4.3664 C.ar    1  LIG1       -0.0532
     34 H          13.3071   13.2485    3.9683 H       1  LIG1        0.0622
     35 C          18.2070   14.6244    6.2872 C.3     1  LIG1        0.0788
     36 H          18.7560   14.0954    5.7044 H       1  LIG1        0.0660
     37 H          18.0727   14.1564    7.1140 H       1  LIG1        0.0660
     38 H          18.6413   15.4634    6.4613 H       1  LIG1        0.0660
     39 C           9.9056   11.3255    2.6579 C.ar    1  LIG1        0.1077
     40 C          10.0441   12.6519    2.3091 C.ar    1  LIG1       -0.0350
     41 H          10.8746   12.9882    2.0600 H       1  LIG1        0.0637
     42 C           8.9438   13.4694    2.3328 C.ar    1  LIG1       -0.0570
     43 H           9.0386   14.3661    2.1055 H       1  LIG1        0.0621
     44 C           7.6927   12.9886    2.6892 C.ar    1  LIG1       -0.0503
     45 C           7.5845   11.6497    3.0173 C.ar    1  LIG1       -0.0570
     46 H           6.7511   11.3040    3.2437 H       1  LIG1        0.0621
     47 C           8.6722   10.8181    3.0165 C.ar    1  LIG1       -0.0350
     48 H           8.5820    9.9236    3.2550 H       1  LIG1        0.0637
     49 C           6.4972   13.9000    2.7502 C.3     1  LIG1       -0.0397
     50 H           6.7261   14.7537    2.3741 H       1  LIG1        0.0278
     51 H           6.2281   14.0153    3.6642 H       1  LIG1        0.0278
     52 H           5.7745   13.5141    2.2498 H       1  LIG1        0.0278
     53 S          11.3088   10.2763    2.6489 S.O2    1  LIG1        0.0834
     54 O          14.0354    6.0127    5.7293 O.2     1  LIG1       -0.2920
     55 O          11.5283   11.0898    5.0845 O.3     1  LIG1       -0.2751
     56 O          16.9523   14.8622    5.6683 O.3     1  LIG1       -0.4951
     57 O          12.0847   10.4612    1.4697 O.2     1  LIG1       -0.1509
     58 O          10.8948    8.9490    2.9791 O.2     1  LIG1       -0.1509
     59 N          12.2281   11.0053    3.8506 N.4     1  LIG1       -0.0429
@<TRIPOS>BOND
     1    20    19    1
     2    19    21   ar
     3    19    17   ar
     4    22    21    1
     5    18    17    1
     6    57    53    2
     7    21    23   ar
     8    17    15   ar
     9    41    40    1
    10    43    42    1
    11    52    49    1
    12    40    42   ar
    13    40    39   ar
    14    42    44   ar
    15    50    49    1
    16    53    39    1
    17    53    58    2
    18    53    59    1
    19    39    47   ar
    20    44    49    1
    21    44    45   ar
    22    23    24    1
    23    23    14   ar
    24    49    51    1
    25    15    16    1
    26    15    14   ar
    27    47    45   ar
    28    47    48    1
    29    45    46    1
    30    10     9    1
    31    14     2    1
    32    59     9    1
    33    59    55    1
    34    34    33    1
    35     9    25    1
    36     9     1    1
    37    33    25   ar
    38    33    31   ar
    39     2     1    2
    40     2     3    1
    41    25    26   ar
    42    32    31    1
    43    31    30   ar
    44     1     7    1
    45    55    11    1
    46    26    27    1
    47    26    28   ar
    48    30    28   ar
    49    30    56    1
    50    12    11    1
    51    28    29    1
    52     3    54    2
    53     3     4    1
    54    56    35    1
    55    36    35    1
    56    11     7    1
    57    11    13    1
    58     7     4    1
    59     7     8    1
    60    35    38    1
    61    35    37    1
    62     4     6    1
    63     4     5    1
