@<TRIPOS>MOLECULE
7157632.cif
 33 36 0 0 0
SMALL
GASTEIGER

@<TRIPOS>ATOM
      1 O           4.3868    1.1070   10.0616 O.3     1  LIG1       -0.4633
      2 O           2.5595    1.8800    8.0319 O.3     1  LIG1       -0.4613
      3 N           4.6772    1.2893    7.2917 N.pl3   1  LIG1       -0.3001
      4 H           4.6582    1.5382    6.4446 H       1  LIG1        0.1500
      5 N           2.5696   -0.2967    9.7954 N.pl3   1  LIG1       -0.3022
      6 H           2.5469   -1.0053   10.3009 H       1  LIG1        0.1498
      7 C           3.4751    0.7625    7.8185 C.3     1  LIG1        0.2273
      8 C           3.7701    0.1253    9.1846 C.3     1  LIG1        0.2222
      9 H           4.3823   -0.6565    9.0685 H       1  LIG1        0.1010
     10 C           5.2833    1.9986    9.5092 C.ar    1  LIG1        0.1442
     11 C           6.0130    2.8012   10.3645 C.ar    1  LIG1       -0.0180
     12 H           5.9072    2.7116   11.3047 H       1  LIG1        0.0655
     13 C           6.8994    3.7367    9.8542 C.ar    1  LIG1       -0.0582
     14 H           7.4017    4.2894   10.4427 H       1  LIG1        0.0619
     15 C           7.0515    3.8636    8.4778 C.ar    1  LIG1       -0.0598
     16 H           7.6587    4.5026    8.1241 H       1  LIG1        0.0618
     17 C           6.3192    3.0605    7.6229 C.ar    1  LIG1       -0.0372
     18 H           6.4321    3.1511    6.6836 H       1  LIG1        0.0637
     19 C           5.4209    2.1222    8.1190 C.ar    1  LIG1        0.0724
     20 C           1.4882    1.6442    8.8653 C.ar    1  LIG1        0.1445
     21 C           0.4343    2.5364    8.8302 C.ar    1  LIG1       -0.0180
     22 H           0.4586    3.2725    8.2304 H       1  LIG1        0.0655
     23 C          -0.6593    2.3661    9.6631 C.ar    1  LIG1       -0.0582
     24 H          -1.3826    2.9808    9.6344 H       1  LIG1        0.0619
     25 C          -0.6901    1.2893   10.5399 C.ar    1  LIG1       -0.0598
     26 H          -1.4375    1.1668   11.1126 H       1  LIG1        0.0618
     27 C           0.3631    0.3966   10.5830 C.ar    1  LIG1       -0.0372
     28 H           0.3301   -0.3390   11.1835 H       1  LIG1        0.0637
     29 C           1.4739    0.5609    9.7577 C.ar    1  LIG1        0.0722
     30 C           2.8646   -0.2461    6.8712 C.3     1  LIG1       -0.0021
     31 H           2.8435    0.1275    5.9656 H       1  LIG1        0.0287
     32 H           1.9511   -0.4549    7.1603 H       1  LIG1        0.0287
     33 H           3.4034   -1.0652    6.8745 H       1  LIG1        0.0287
@<TRIPOS>BOND
     1    31    30    1
     2     4     3    1
     3    18    17    1
     4    30    33    1
     5    30    32    1
     6    30     7    1
     7     3     7    1
     8     3    19    1
     9    17    19   ar
    10    17    15   ar
    11     7     2    1
    12     7     8    1
    13     2    20    1
    14    19    10   ar
    15    16    15    1
    16    22    21    1
    17    15    13   ar
    18    21    20   ar
    19    21    23   ar
    20    20    29   ar
    21     9     8    1
    22     8     5    1
    23     8     1    1
    24    10     1    1
    25    10    11   ar
    26    24    23    1
    27    23    25   ar
    28    29     5    1
    29    29    27   ar
    30     5     6    1
    31    13    11   ar
    32    13    14    1
    33    11    12    1
    34    25    27   ar
    35    25    26    1
    36    27    28    1
