@<TRIPOS>MOLECULE
nicotinamide:adipic acid 1:1
 35 33 0 0 0
SMALL
GASTEIGER

@<TRIPOS>ATOM
      1 O          -1.1185    2.6789    7.2924 O.2     1  LIG1       -0.2704
      2 O           2.8478    0.3379    1.9663 O.3     2  LIG2       -0.4806
      3 H           3.4143    0.3259    2.7063 H       2  LIG2        0.2951
      4 O           2.0690    2.2151    2.8930 O.2     2  LIG2       -0.2510
      5 O          -1.5231   -0.5235    8.6777 O.3     3  LIG3       -0.4806
      6 H          -1.1796   -1.2271    8.2508 H       3  LIG3        0.2951
      7 O           0.3484   -0.7167    9.8640 O.2     3  LIG3       -0.2510
      8 N          -0.4489    0.2134    4.0341 N.ar    1  LIG1       -0.2625
      9 N           1.0249    2.5200    7.9600 N.am    1  LIG1       -0.3253
     10 H           0.9052    3.1251    8.5864 H       1  LIG1        0.1453
     11 H           1.8147    2.1460    7.8552 H       1  LIG1        0.1453
     12 C           0.2644    1.1457    6.1217 C.ar    1  LIG1        0.0545
     13 C           1.2916    0.2114    6.2051 C.ar    1  LIG1       -0.0467
     14 H           1.8878    0.2108    6.9444 H       1  LIG1        0.0626
     15 C           1.4270   -0.7188    5.1851 C.ar    1  LIG1       -0.0429
     16 H           2.1210   -1.3672    5.2113 H       1  LIG1        0.0633
     17 C           0.5364   -0.6878    4.1283 C.ar    1  LIG1        0.0276
     18 H           0.6274   -1.3347    3.4374 H       1  LIG1        0.0829
     19 C          -0.5749    1.1131    5.0178 C.ar    1  LIG1        0.0396
     20 H          -1.2699    1.7576    4.9572 H       1  LIG1        0.0837
     21 C           0.0179    2.1717    7.1750 C.2     1  LIG1        0.2430
     22 C           2.0414    1.3908    2.0037 C.2     2  LIG2        0.3047
     23 C           1.0996    1.4029    0.8327 C.3     2  LIG2        0.0448
     24 H           0.4665    0.6486    0.9325 H       2  LIG2        0.0377
     25 H           1.6237    1.2428    0.0096 H       2  LIG2        0.0377
     26 C           0.2974    2.6798    0.6498 C.3     2  LIG2       -0.0425
     27 H           0.9130    3.4552    0.6424 H       2  LIG2        0.0271
     28 H          -0.3225    2.7898    1.4143 H       2  LIG2        0.0271
     29 C          -0.7227   -0.1897    9.6780 C.2     3  LIG3        0.3047
     30 C          -1.3086    0.8859   10.5462 C.3     3  LIG3        0.0448
     31 H          -2.0705    0.5051   11.0506 H       3  LIG3        0.0377
     32 H          -1.6640    1.6033    9.9647 H       3  LIG3        0.0377
     33 C          -0.3367    1.5002   11.5300 C.3     3  LIG3       -0.0425
     34 H           0.3933    1.9472   11.0338 H       3  LIG3        0.0271
     35 H           0.0648    0.7838   12.0837 H       3  LIG3        0.0271
@<TRIPOS>BOND
     1    25    23    1
     2    27    26    1
     3    26    23    1
     4    26    28    1
     5    23    24    1
     6    23    22    1
     7     2    22    1
     8     2     3    1
     9    22     4    2
    10    18    17    1
    11     8    17   ar
    12     8    19   ar
    13    17    15   ar
    14    20    19    1
    15    19    12   ar
    16    15    16    1
    17    15    13   ar
    18    12    13   ar
    19    12    21    1
    20    13    14    1
    21    21     1    2
    22    21     9   am
    23    11     9    1
    24     9    10    1
    25     6     5    1
    26     5    29    1
    27    29     7    2
    28    29    30    1
    29    32    30    1
    30    30    31    1
    31    30    33    1
    32    34    33    1
    33    33    35    1
