@<TRIPOS>MOLECULE
(S,S)-(-)-decamethylene bis(3,3,3-trifluorolactate) hexane ether mixed solvate
 26 25 0 0 0
SMALL
GASTEIGER

@<TRIPOS>ATOM
      1 F           4.1100    1.2350   -0.4523 F       1  LIG1       -0.1673
      2 F           3.8045    3.1425    0.4739 F       1  LIG1       -0.1673
      3 F           3.4810    1.3290    1.5940 F       1  LIG1       -0.1673
      4 O           6.4973    2.4017    0.0567 O.3     1  LIG1       -0.3739
      5 O           6.5403    3.8865    2.2412 O.2     1  LIG1       -0.2476
      6 O           5.3247    2.3738    3.3927 O.3     1  LIG1       -0.4626
      7 C           4.2623    1.9121    0.6902 C.3     1  LIG1        0.4259
      8 C           5.7203    1.9263    1.1197 C.3     1  LIG1        0.2474
      9 H           6.0034    1.0195    1.3583 H       1  LIG1        0.0804
     10 C           5.9139    2.8573    2.3092 C.2     1  LIG1        0.3451
     11 C           5.4240    3.1784    4.6144 C.3     1  LIG1        0.0925
     12 H           6.3103    3.5673    4.6715 H       1  LIG1        0.0697
     13 H           5.2978    2.6055    5.3871 H       1  LIG1        0.0697
     14 C           4.3914    4.2819    4.6366 C.3     1  LIG1       -0.0185
     15 H           4.5348    4.8564    3.8679 H       1  LIG1        0.0298
     16 H           4.5262    4.8185    5.4330 H       1  LIG1        0.0298
     17 C           2.9529    3.7924    4.6176 C.3     1  LIG1       -0.0500
     18 H           2.8023    3.2149    5.3823 H       1  LIG1        0.0266
     19 H           2.8052    3.2675    3.8149 H       1  LIG1        0.0266
     20 C           1.9482    4.9414    4.6541 C.3     1  LIG1       -0.0530
     21 H           2.1025    5.4673    5.4552 H       1  LIG1        0.0265
     22 H           2.0996    5.5174    3.8886 H       1  LIG1        0.0265
     23 C           0.4991    4.4751    4.6398 C.3     1  LIG1       -0.0531
     24 H           0.3385    3.9198    5.4188 H       1  LIG1        0.0265
     25 H           0.3499    3.9305    3.8513 H       1  LIG1        0.0265
     26 H           6.8754    1.7933   -0.3835 H       1  LIG1        0.2108
@<TRIPOS>BOND
     1     1     7    1
     2    26     4    1
     3     4     8    1
     4     2     7    1
     5     7     8    1
     6     7     3    1
     7     8     9    1
     8     8    10    1
     9     5    10    2
    10    10     6    1
    11     6    11    1
    12    19    17    1
    13    25    23    1
    14    15    14    1
    15    22    20    1
    16    11    14    1
    17    11    12    1
    18    11    13    1
    19    17    14    1
    20    17    20    1
    21    17    18    1
    22    14    16    1
    23    23    20    1
    24    23    24    1
    25    20    21    1
