@<TRIPOS>MOLECULE
HG864A 2-(3-methoxyphenyl)-5-methyl-tetrazolone
 25 26 0 0 0
SMALL
GASTEIGER

@<TRIPOS>ATOM
      1 N           3.3292    1.5230    8.9961 N.ar    1  LIG1       -0.1606
      2 N           3.6236    1.4329   10.3349 N.ar    1  LIG1       -0.0378
      3 N           2.5338    1.2236   10.9670 N.ar    1  LIG1       -0.0427
      4 N           1.5203    1.1681   10.0691 N.ar    1  LIG1       -0.1963
      5 C           1.9664    1.3606    8.7884 C.ar    1  LIG1        0.3685
      6 O           1.3175    1.3719    7.7554 O.2     1  LIG1       -0.2428
      7 C           0.1545    0.8987   10.4696 C.3     1  LIG1        0.0371
      8 H          -0.3277    1.7457   10.5778 H       1  LIG1        0.0475
      9 H           0.1537    0.4111   11.3203 H       1  LIG1        0.0475
     10 H          -0.2871    0.3573    9.7825 H       1  LIG1        0.0475
     11 C           4.3683    1.7093    8.0436 C.ar    1  LIG1        0.0758
     12 C           4.0302    1.9129    6.7135 C.ar    1  LIG1        0.0057
     13 H           3.1189    1.9493    6.4491 H       1  LIG1        0.0675
     14 C           5.0454    2.0628    5.7707 C.ar    1  LIG1        0.1221
     15 O           4.6176    2.2410    4.4838 O.3     1  LIG1       -0.4950
     16 C           6.3819    2.0256    6.1582 C.ar    1  LIG1       -0.0198
     17 H           7.0734    2.1319    5.5161 H       1  LIG1        0.0654
     18 C           6.6894    1.8302    7.5040 C.ar    1  LIG1       -0.0563
     19 H           7.6007    1.8087    7.7725 H       1  LIG1        0.0619
     20 C           5.6986    1.6670    8.4601 C.ar    1  LIG1       -0.0358
     21 H           5.9198    1.5303    9.3744 H       1  LIG1        0.0639
     22 C           5.6282    2.3330    3.4755 C.3     1  LIG1        0.0788
     23 H           5.2052    2.4103    2.5956 H       1  LIG1        0.0660
     24 H           6.1874    1.5290    3.4998 H       1  LIG1        0.0660
     25 H           6.1839    3.1223    3.6406 H       1  LIG1        0.0660
@<TRIPOS>BOND
     1    23    22    1
     2    22    24    1
     3    22    25    1
     4    22    15    1
     5    15    14    1
     6    17    16    1
     7    14    16   ar
     8    14    12   ar
     9    16    18   ar
    10    13    12    1
    11    12    11   ar
    12    18    19    1
    13    18    20   ar
    14     6     5    2
    15    11    20   ar
    16    11     1    1
    17    20    21    1
    18     5     1   ar
    19     5     4   ar
    20     1     2   ar
    21    10     7    1
    22     4     7    1
    23     4     3   ar
    24     2     3   ar
    25     7     8    1
    26     7     9    1
