@<TRIPOS>MOLECULE
C12 H13 Cl N2
 56 58 0 0 0
SMALL
GASTEIGER

@<TRIPOS>ATOM
      1 CL          7.0165    8.3134    7.5252 Cl      1  LIG1       -0.0835
      2 CL          5.2328    0.2824    7.8564 Cl      2  LIG2       -0.0835
      3 N           4.5500    4.5334    5.2126 N.ar    1  LIG1       -0.2548
      4 N           2.8246    3.1413    8.8014 N.pl3   1  LIG1       -0.3433
      5 H           2.8485    3.6241    9.5360 H       1  LIG1        0.1461
      6 N           7.4387    4.1004   10.3784 N.ar    2  LIG2       -0.2548
      7 N           9.2868    5.6541    6.9273 N.pl3   2  LIG2       -0.3433
      8 H           9.1750    5.3014    6.1298 H       2  LIG2        0.1461
      9 C           3.7664    3.4641    5.2722 C.ar    1  LIG1        0.0300
     10 H           3.6062    3.0021    4.4576 H       1  LIG1        0.0830
     11 C           3.1566    2.9554    6.4105 C.ar    1  LIG1       -0.0221
     12 H           2.6022    2.1860    6.3532 H       1  LIG1        0.0651
     13 C           3.3659    3.5835    7.6409 C.ar    1  LIG1        0.0378
     14 C           4.2283    4.7412    7.6404 C.ar    1  LIG1        0.0213
     15 C           4.5631    5.4513    8.8181 C.ar    1  LIG1       -0.0494
     16 H           4.1977    5.1720    9.6495 H       1  LIG1        0.0625
     17 C           5.4048    6.5371    8.7838 C.ar    1  LIG1       -0.0426
     18 H           5.6219    7.0038    9.5816 H       1  LIG1        0.0632
     19 C           5.9413    6.9465    7.5491 C.ar    1  LIG1        0.0430
     20 C           5.6453    6.2950    6.3890 C.ar    1  LIG1       -0.0173
     21 H           6.0147    6.5957    5.5671 H       1  LIG1        0.0653
     22 C           4.7875    5.1716    6.4064 C.ar    1  LIG1        0.0741
     23 C           1.9490    1.9846    8.8979 C.3     1  LIG1        0.0089
     24 H           1.9804    1.6395    9.8260 H       1  LIG1        0.0461
     25 H           2.2967    1.2746    8.3031 H       1  LIG1        0.0461
     26 C           0.4972    2.2631    8.5302 C.3     1  LIG1       -0.0403
     27 H           0.1233    2.9392    9.1497 H       1  LIG1        0.0278
     28 H           0.4540    2.6318    7.6120 H       1  LIG1        0.0278
     29 C          -0.3360    0.9905    8.6067 C.3     1  LIG1       -0.0639
     30 H          -1.2592    1.1883    8.3438 H       1  LIG1        0.0230
     31 H          -0.3242    0.6472    9.5249 H       1  LIG1        0.0230
     32 H           0.0401    0.3182    8.0020 H       1  LIG1        0.0230
     33 C           8.2486    5.1470   10.4028 C.ar    2  LIG2        0.0300
     34 H           8.3937    5.5603   11.2465 H       2  LIG2        0.0830
     35 C           8.9091    5.6989    9.3054 C.ar    2  LIG2       -0.0221
     36 H           9.4850    6.4465    9.4187 H       2  LIG2        0.0651
     37 C           8.7157    5.1430    8.0351 C.ar    2  LIG2        0.0378
     38 C           7.8592    3.9858    7.9577 C.ar    2  LIG2        0.0213
     39 C           7.5904    3.3038    6.7458 C.ar    2  LIG2       -0.0494
     40 H           7.9698    3.6259    5.9373 H       2  LIG2        0.0625
     41 C           6.7910    2.1835    6.7148 C.ar    2  LIG2       -0.0426
     42 H           6.6241    1.7330    5.8954 H       2  LIG2        0.0632
     43 C           6.2274    1.7191    7.9131 C.ar    2  LIG2        0.0430
     44 C           6.4333    2.3517    9.1016 C.ar    2  LIG2       -0.0173
     45 H           6.0271    2.0206    9.8939 H       2  LIG2        0.0653
     46 C           7.2557    3.5105    9.1534 C.ar    2  LIG2        0.0741
     47 C          10.1891    6.7874    6.9110 C.3     2  LIG2        0.0089
     48 H           9.8923    7.4388    7.5947 H       2  LIG2        0.0461
     49 H          10.1274    7.2303    6.0286 H       2  LIG2        0.0461
     50 C          11.6058    6.4357    7.1714 C.3     2  LIG2       -0.0403
     51 H          11.9132    5.7796    6.4964 H       2  LIG2        0.0278
     52 H          11.6836    6.0169    8.0649 H       2  LIG2        0.0278
     53 C          12.4916    7.6831    7.1122 C.3     2  LIG2       -0.0639
     54 H          13.4199    7.4334    7.3022 H       2  LIG2        0.0230
     55 H          12.1861    8.3323    7.7786 H       2  LIG2        0.0230
     56 H          12.4368    8.0806    6.2187 H       2  LIG2        0.0230
@<TRIPOS>BOND
     1    10     9    1
     2     3     9   ar
     3     3    22   ar
     4     9    11   ar
     5    21    20    1
     6    42    41    1
     7    40    39    1
     8    49    47    1
     9     8     7    1
    10    56    53    1
    11    12    11    1
    12    20    22   ar
    13    20    19   ar
    14    22    14   ar
    15    11    13   ar
    16    51    50    1
    17    41    39   ar
    18    41    43   ar
    19    39    38   ar
    20    47     7    1
    21    47    50    1
    22    47    48    1
    23     7    37    1
    24    53    50    1
    25    53    54    1
    26    53    55    1
    27    50    52    1
    28     1    19    1
    29    19    17   ar
    30    28    26    1
    31    14    13   ar
    32    14    15   ar
    33    13     4    1
    34     2    43    1
    35    43    44   ar
    36    38    37   ar
    37    38    46   ar
    38    32    29    1
    39    37    35   ar
    40    25    23    1
    41    30    29    1
    42    26    29    1
    43    26    23    1
    44    26    27    1
    45    29    31    1
    46    17    15   ar
    47    17    18    1
    48     4    23    1
    49     4     5    1
    50    15    16    1
    51    23    24    1
    52    44    46   ar
    53    44    45    1
    54    46     6   ar
    55    35    36    1
    56    35    33   ar
    57     6    33   ar
    58    33    34    1
