@<TRIPOS>MOLECULE
?
 34 34 0 0 0
SMALL
GASTEIGER

@<TRIPOS>ATOM
      1 O           3.9317    1.2437    0.8913 O.2     1  LIG1       -0.4946
      2 C           5.0615    0.5866    0.4918 C.2     1  LIG1        0.1196
      3 C           5.6747    1.0952   -0.6599 C.3     1  LIG1        0.1392
      4 C           5.6147   -0.5062    1.1401 C.2     1  LIG1       -0.0194
      5 C           5.0763    2.2061   -1.3526 C.1     1  LIG1       -0.0783
      6 C           3.8039    4.2000   -2.4742 C.ar    1  LIG1        0.0250
      7 C           2.5778    4.5550   -1.9566 C.ar    1  LIG1       -0.0463
      8 C           2.1774    1.8036    2.3811 C.3     1  LIG1       -0.0187
      9 C           3.3132    0.8437    2.1139 C.3     1  LIG1        0.0892
     10 C           4.5315    3.1097   -1.8912 C.1     1  LIG1       -0.0652
     11 C           4.2960    4.9214   -3.5430 C.ar    1  LIG1       -0.0463
     12 C           3.5707    5.9634   -4.0784 C.ar    1  LIG1       -0.0606
     13 C           1.4570    1.5098    3.6756 C.3     1  LIG1       -0.0502
     14 C           1.8587    5.6066   -2.4999 C.ar    1  LIG1       -0.0606
     15 C           2.3598    6.3040   -3.5588 C.ar    1  LIG1       -0.0617
     16 C           0.3265    2.4667    3.9488 C.3     1  LIG1       -0.0558
     17 C          -0.4089    2.1683    5.2393 C.3     1  LIG1       -0.0653
     18 H           2.0407    1.5317    4.5327 H       1  LIG1        0.0266
     19 H           1.1393    0.5150    3.6717 H       1  LIG1        0.0266
     20 H           4.0205    0.8443    2.9195 H       1  LIG1        0.0696
     21 H           5.2621   -1.0123    2.0585 H       1  LIG1        0.0652
     22 H          -0.7526    1.3284    5.1265 H       1  LIG1        0.0230
     23 H           0.6750    3.3154    4.1170 H       1  LIG1        0.0263
     24 H           2.5397    2.6656    2.4445 H       1  LIG1        0.0298
     25 H           2.9744   -0.1326    2.0288 H       1  LIG1        0.0696
     26 H           0.9881    5.7711   -2.1080 H       1  LIG1        0.0618
     27 H           2.2013    4.0338   -1.3261 H       1  LIG1        0.0630
     28 H           0.2558    2.2324    6.0963 H       1  LIG1        0.0230
     29 H           5.1521    4.6703   -3.8993 H       1  LIG1        0.0630
     30 H          -0.3007    2.5440    3.1372 H       1  LIG1        0.0263
     31 H          -1.1080    2.8844    5.5916 H       1  LIG1        0.0230
     32 H           3.9304    6.4496   -4.8988 H       1  LIG1        0.0618
     33 H           1.9037    7.0575   -3.9982 H       1  LIG1        0.0618
     34 H           1.5869    1.8036    1.5934 H       1  LIG1        0.0298
@<TRIPOS>BOND
     1    32    12    1
     2    12    15   ar
     3    12    11   ar
     4    33    15    1
     5    29    11    1
     6    15    14   ar
     7    11     6   ar
     8    14    26    1
     9    14     7   ar
    10     6     7   ar
    11     6    10    1
    12     7    27    1
    13    10     5    3
    14     5     3    1
    15     3     2    1
    16     2     1    1
    17     2     4    2
    18     1     9    1
    19     4    21    1
    20    34     8    1
    21    25     9    1
    22     9     8    1
    23     9    20    1
    24     8    24    1
    25     8    13    1
    26    30    16    1
    27    19    13    1
    28    13    16    1
    29    13    18    1
    30    16    23    1
    31    16    17    1
    32    22    17    1
    33    17    31    1
    34    17    28    1
