@<TRIPOS>MOLECULE
?
 114 117 0 0 0
SMALL
GASTEIGER

@<TRIPOS>ATOM
      1 C           2.4364    5.4667    1.9531 C.ar    1  LIG1        0.2487
      2 C           3.8292    5.8295    2.1482 C.ar    1  LIG1        0.0385
      3 C           4.3464    7.0156    1.6921 C.ar    1  LIG1       -0.0492
      4 H           3.7934    7.6175    1.2467 H       1  LIG1        0.0625
      5 C           5.6755    7.3262    1.8832 C.ar    1  LIG1       -0.0579
      6 H           6.0053    8.1303    1.5524 H       1  LIG1        0.0620
      7 C           6.5187    6.4890    2.5435 C.ar    1  LIG1       -0.0473
      8 C           5.9966    5.3101    3.0069 C.ar    1  LIG1       -0.0579
      9 H           6.5533    4.7183    3.4618 H       1  LIG1        0.0620
     10 C           4.6842    4.9728    2.8230 C.ar    1  LIG1       -0.0492
     11 H           4.3628    4.1653    3.1526 H       1  LIG1        0.0625
     12 C           7.9919    6.8000    2.6713 C.3     1  LIG1       -0.0277
     13 H           8.4098    6.0428    3.1119 H       1  LIG1        0.0313
     14 H           8.3562    6.8391    1.7733 H       1  LIG1        0.0313
     15 C           8.4106    7.9473    3.3353 C.3     1  LIG1       -0.0491
     16 H           8.0483    8.7270    2.8874 H       1  LIG1        0.0268
     17 H           9.3787    8.0032    3.2994 H       1  LIG1        0.0268
     18 C           7.9804    7.9483    4.7205 C.3     1  LIG1       -0.0528
     19 H           8.1727    7.0836    5.1181 H       1  LIG1        0.0265
     20 H           7.0224    8.0910    4.7611 H       1  LIG1        0.0265
     21 C           8.6982    9.0515    5.5241 C.3     1  LIG1       -0.0533
     22 H           9.6543    8.9480    5.3916 H       1  LIG1        0.0265
     23 H           8.4475    9.9101    5.1468 H       1  LIG1        0.0265
     24 C           8.4465    9.0962    6.9416 C.3     1  LIG1       -0.0559
     25 H           8.6787    8.2179    7.2795 H       1  LIG1        0.0263
     26 H           7.4841    9.1767    7.0359 H       1  LIG1        0.0263
     27 C           9.0369   10.0798    7.9136 C.3     1  LIG1       -0.0653
     28 H           9.9944   10.0145    7.8921 H       1  LIG1        0.0230
     29 H           8.7231    9.8829    8.7985 H       1  LIG1        0.0230
     30 H           8.7724   10.9693    7.6700 H       1  LIG1        0.0230
     31 C           0.4205    5.6474    1.2789 C.ar    1  LIG1        0.2460
     32 C          -0.7550    6.2404    0.6054 C.2     1  LIG1        0.0321
     33 C          -1.4753    5.4755   -0.3200 C.2     1  LIG1       -0.0300
     34 C          -1.0742    4.1693   -0.7189 C.3     1  LIG1       -0.0003
     35 H          -0.3066    3.7945   -0.3499 H       1  LIG1        0.0361
     36 C          -1.1578    7.5578    0.9370 C.3     1  LIG1        0.0481
     37 C          -0.4534    8.3530    1.8891 C.2     1  LIG1       -0.0710
     38 H           0.3013    7.9950    2.2952 H       1  LIG1        0.0581
     39 C          -0.8381    9.6066    2.2295 C.2     1  LIG1       -0.0629
     40 C          -2.0131   10.1240    1.6217 C.3     1  LIG1       -0.0052
     41 H          -2.3008   10.9782    1.8533 H       1  LIG1        0.0358
     42 C          -0.0867   10.4556    3.2505 C.3     1  LIG1       -0.0164
     43 C           1.2016    9.7998    3.7138 C.3     1  LIG1       -0.0563
     44 H           0.9979    8.9829    4.1735 H       1  LIG1        0.0238
     45 H           1.6686   10.3927    4.3073 H       1  LIG1        0.0238
     46 H           1.7553    9.6091    2.9519 H       1  LIG1        0.0238
     47 C          -1.0049   10.6692    4.4554 C.3     1  LIG1       -0.0563
     48 H          -1.8518   11.0088    4.1568 H       1  LIG1        0.0238
     49 H          -0.6026   11.2986    5.0572 H       1  LIG1        0.0238
     50 H          -1.1376    9.8321    4.9091 H       1  LIG1        0.0238
     51 C           0.2653   11.8194    2.6510 C.3     1  LIG1       -0.0563
     52 H           0.8668   11.6988    1.9118 H       1  LIG1        0.0238
     53 H           0.6861   12.3638    3.3197 H       1  LIG1        0.0238
     54 H          -0.5351   12.2501    2.3441 H       1  LIG1        0.0238
     55 C           4.3082    2.3221    0.2505 C.ar    2  LIG2        0.2484
     56 C           5.7027    2.2021    0.6520 C.ar    2  LIG2        0.0385
     57 C           6.6092    3.1644    0.2902 C.ar    2  LIG2       -0.0492
     58 H           6.3253    3.9020   -0.1982 H       2  LIG2        0.0625
     59 C           7.9402    3.0498    0.6413 C.ar    2  LIG2       -0.0579
     60 H           8.5304    3.7238    0.3941 H       2  LIG2        0.0620
     61 C           8.4111    1.9855    1.3374 C.ar    2  LIG2       -0.0473
     62 C           7.5014    1.0344    1.7040 C.ar    2  LIG2       -0.0579
     63 H           7.7930    0.2937    2.1877 H       2  LIG2        0.0620
     64 C           6.1643    1.1379    1.3804 C.ar    2  LIG2       -0.0492
     65 H           5.5717    0.4775    1.6575 H       2  LIG2        0.0625
     66 C           9.8829    1.8246    1.6372 C.3     2  LIG2       -0.0277
     67 H           9.9873    1.0733    2.2426 H       2  LIG2        0.0313
     68 H          10.3352    1.5928    0.8108 H       2  LIG2        0.0313
     69 C          10.5810    2.9957    2.2319 C.3     2  LIG2       -0.0491
     70 H          11.5343    2.8116    2.2331 H       2  LIG2        0.0268
     71 H          10.4369    3.7602    1.6515 H       2  LIG2        0.0268
     72 C          10.1921    3.3701    3.5741 C.3     2  LIG2       -0.0528
     73 H          10.3285    2.5998    4.1497 H       2  LIG2        0.0265
     74 H           9.2400    3.5571    3.5669 H       2  LIG2        0.0265
     75 C          10.8862    4.5435    4.2022 C.3     2  LIG2       -0.0533
     76 H          11.8410    4.4143    4.0912 H       2  LIG2        0.0265
     77 H          10.6449    5.3335    3.6959 H       2  LIG2        0.0265
     78 C          10.6434    4.8202    5.5850 C.3     2  LIG2       -0.0559
     79 H          10.8003    4.0076    6.0902 H       2  LIG2        0.0263
     80 H           9.7069    5.0500    5.6877 H       2  LIG2        0.0263
     81 C          11.4839    5.9458    6.2108 C.3     2  LIG2       -0.0653
     82 H          12.3317    5.5921    6.4914 H       2  LIG2        0.0230
     83 H          11.0212    6.3081    6.9690 H       2  LIG2        0.0230
     84 H          11.6256    6.6391    5.5611 H       2  LIG2        0.0230
     85 C           2.2722    1.7585   -0.0441 C.ar    2  LIG2        0.2308
     86 C           1.0926    0.8813   -0.0187 C.3     2  LIG2        0.1126
     87 C           0.5683    0.4599    1.2222 C.ar    2  LIG2       -0.0216
     88 C           1.0819    0.9434    2.4665 C.ar    2  LIG2       -0.0532
     89 H           1.7882    1.5482    2.4528 H       2  LIG2        0.0624
     90 C           0.5790    0.5562    3.6690 C.ar    2  LIG2       -0.0417
     91 C          -0.4939   -0.3661    3.6529 C.ar    2  LIG2       -0.0575
     92 H          -0.8430   -0.6578    4.4637 H       2  LIG2        0.0621
     93 C          -1.0313   -0.8412    2.5089 C.ar    2  LIG2       -0.0535
     94 H          -1.7416   -1.4399    2.5543 H       2  LIG2        0.0624
     95 C          -0.5350   -0.4436    1.2337 C.ar    2  LIG2       -0.0133
     96 C           1.0934    1.1461    4.9939 C.3     2  LIG2       -0.0127
     97 C           0.2737    2.3956    5.2853 C.3     2  LIG2       -0.0560
     98 H          -0.6430    2.1516    5.4226 H       2  LIG2        0.0238
     99 H           0.3369    2.9988    4.5413 H       2  LIG2        0.0238
    100 H           0.6144    2.8245    6.0734 H       2  LIG2        0.0238
    101 C           2.5520    1.5509    4.8936 C.3     2  LIG2       -0.0560
    102 H           2.8656    1.8294    5.7570 H       2  LIG2        0.0238
    103 H           2.6409    2.2752    4.2715 H       2  LIG2        0.0238
    104 H           3.0704    0.8032    4.5903 H       2  LIG2        0.0238
    105 C           0.9313    0.1751    6.1523 C.3     2  LIG2       -0.0560
    106 H           1.3580    0.5350    6.9344 H       2  LIG2        0.0238
    107 H           1.3372   -0.6651    5.9254 H       2  LIG2        0.0238
    108 H          -0.0026    0.0426    6.3302 H       2  LIG2        0.0238
    109 N           1.8070    4.4470    2.4050 N.ar    1  LIG1       -0.1070
    110 N           0.4727    4.5657    1.9668 N.ar    1  LIG1       -0.1072
    111 N           3.7407    3.2983   -0.3559 N.ar    2  LIG2       -0.1072
    112 N           2.4029    2.9246   -0.5481 N.ar    2  LIG2       -0.1110
    113 O           1.6331    6.2748    1.2096 O.2     1  LIG1       -0.4161
    114 O           3.4439    1.3000    0.4896 O.2     2  LIG2       -0.4192
@<TRIPOS>BOND
     1    34    35    1
     2    34    33    1
     3   112   111   ar
     4   112    85   ar
     5   111    55   ar
     6    33    32    2
     7    58    57    1
     8    85    86    1
     9    85   114   ar
    10    86    87    1
    11    55   114   ar
    12    55    56    1
    13    57    59   ar
    14    57    56   ar
    15    60    59    1
    16    32    36    1
    17    32    31    1
    18    59    61   ar
    19    56    64   ar
    20    68    66    1
    21    36    37    1
    22   113    31   ar
    23   113     1   ar
    24    87    95   ar
    25    87    88   ar
    26    95    93   ar
    27     4     3    1
    28    31   110   ar
    29    61    66    1
    30    61    62   ar
    31    64    65    1
    32    64    62   ar
    33     6     5    1
    34    40    41    1
    35    40    39    1
    36    66    69    1
    37    66    67    1
    38    71    69    1
    39     3     5   ar
    40     3     2   ar
    41    62    63    1
    42    14    12    1
    43     5     7   ar
    44    37    39    2
    45    37    38    1
    46    52    51    1
    47     1     2    1
    48     1   109   ar
    49   110   109   ar
    50     2    10   ar
    51    39    42    1
    52    69    70    1
    53    69    72    1
    54    54    51    1
    55    89    88    1
    56    88    90   ar
    57    93    94    1
    58    93    91   ar
    59     7    12    1
    60     7     8   ar
    61    51    42    1
    62    51    53    1
    63    12    13    1
    64    12    15    1
    65    10     8   ar
    66    10    11    1
    67    16    15    1
    68    46    43    1
    69     8     9    1
    70    42    43    1
    71    42    47    1
    72    17    15    1
    73    15    18    1
    74    74    72    1
    75    72    73    1
    76    72    75    1
    77    91    90   ar
    78    91    92    1
    79    90    96    1
    80    77    75    1
    81    43    44    1
    82    43    45    1
    83    76    75    1
    84    48    47    1
    85    75    78    1
    86   103   101    1
    87    47    50    1
    88    47    49    1
    89    99    97    1
    90   104   101    1
    91    18    20    1
    92    18    19    1
    93    18    21    1
    94   101    96    1
    95   101   102    1
    96    96    97    1
    97    96   105    1
    98    23    21    1
    99    97    98    1
   100    97   100    1
   101    22    21    1
   102    21    24    1
   103    84    81    1
   104    78    80    1
   105    78    79    1
   106    78    81    1
   107   107   105    1
   108   105   108    1
   109   105   106    1
   110    81    82    1
   111    81    83    1
   112    24    26    1
   113    24    25    1
   114    24    27    1
   115    30    27    1
   116    28    27    1
   117    27    29    1
