@<TRIPOS>MOLECULE
?
 66 68 0 0 0
SMALL
GASTEIGER

@<TRIPOS>ATOM
      1 S           2.9416   -2.6779    3.9213 S.2     1  LIG1       -0.0883
      2 S           1.4788    0.1341    6.9561 S.2     1  LIG1       -0.0927
      3 C           1.8279   -4.0020    3.8110 C.ar    1  LIG1        0.0125
      4 C           0.8063   -3.8434    4.7114 C.ar    1  LIG1       -0.0469
      5 H           0.0910   -4.4616    4.7987 H       1  LIG1        0.0629
      6 C           0.9162   -2.6703    5.4990 C.ar    1  LIG1       -0.0459
      7 H           0.2854   -2.4259    6.1656 H       1  LIG1        0.0629
      8 C           2.0252   -1.9276    5.1994 C.ar    1  LIG1        0.0265
      9 C           2.4653   -0.6756    5.7753 C.ar    1  LIG1        0.0262
     10 C           3.6173    0.0290    5.5630 C.ar    1  LIG1       -0.0462
     11 H           4.2972   -0.2480    4.9615 H       1  LIG1        0.0629
     12 C           3.6933    1.2186    6.3366 C.ar    1  LIG1       -0.0509
     13 H           4.4314    1.8152    6.2994 H       1  LIG1        0.0626
     14 C           2.6175    1.4249    7.1358 C.ar    1  LIG1       -0.0096
     15 C           1.9586   -5.0761    2.8426 C.2     1  LIG1       -0.0510
     16 H           1.3670   -5.8098    2.9606 H       1  LIG1        0.0626
     17 C           2.7812   -5.1744    1.8241 C.2     1  LIG1       -0.0702
     18 H           3.4068   -4.4743    1.6810 H       1  LIG1        0.0582
     19 C           2.7812   -6.3311    0.8841 C.3     1  LIG1        0.0430
     20 C           1.8504   -6.3974   -0.1687 C.ar    1  LIG1       -0.0274
     21 C           1.8599   -7.5318   -1.0575 C.ar    1  LIG1       -0.0135
     22 C           0.8866   -7.5735   -2.1079 C.ar    1  LIG1       -0.0537
     23 H           0.8891   -8.3057   -2.7105 H       1  LIG1        0.0624
     24 C          -0.0385   -6.5926   -2.2603 C.ar    1  LIG1       -0.0612
     25 H          -0.6865   -6.6581   -2.9548 H       1  LIG1        0.0618
     26 C          -0.0447   -5.4738   -1.3960 C.ar    1  LIG1       -0.0614
     27 H          -0.6866   -4.7841   -1.5181 H       1  LIG1        0.0618
     28 C           0.8695   -5.3822   -0.3856 C.ar    1  LIG1       -0.0571
     29 H           0.8528   -4.6240    0.1861 H       1  LIG1        0.0621
     30 C           2.3424    2.5392    8.1013 C.3     1  LIG1       -0.0214
     31 H           2.2821    2.1623    9.0157 H       1  LIG1        0.0318
     32 H           1.4643    2.9414    7.8815 H       1  LIG1        0.0318
     33 C           3.4065    3.6385    8.0891 C.3     1  LIG1       -0.0486
     34 H           4.2907    3.2371    8.2828 H       1  LIG1        0.0269
     35 H           3.4468    4.0415    7.1835 H       1  LIG1        0.0269
     36 C           3.1171    4.7297    9.1128 C.3     1  LIG1       -0.0527
     37 H           2.2265    5.1185    8.9226 H       1  LIG1        0.0265
     38 H           3.0824    4.3231   10.0162 H       1  LIG1        0.0265
     39 C           4.1531    5.8477    9.1152 C.3     1  LIG1       -0.0530
     40 H           4.1530    6.2887    8.2305 H       1  LIG1        0.0265
     41 H           5.0504    5.4545    9.2542 H       1  LIG1        0.0265
     42 C           3.8966    6.8995   10.1924 C.3     1  LIG1       -0.0531
     43 H           2.9977    7.2905   10.0511 H       1  LIG1        0.0265
     44 H           3.8946    6.4563   11.0748 H       1  LIG1        0.0265
     45 C           4.9265    8.0264   10.2075 C.3     1  LIG1       -0.0531
     46 H           4.9193    8.4793    9.3298 H       1  LIG1        0.0265
     47 H           5.8270    7.6361   10.3361 H       1  LIG1        0.0265
     48 C           4.6715    9.0625   11.2999 C.3     1  LIG1       -0.0531
     49 H           3.7706    9.4505   11.1678 H       1  LIG1        0.0265
     50 H           4.6786    8.6081   12.1799 H       1  LIG1        0.0265
     51 C           5.6967   10.1931   11.3208 C.3     1  LIG1       -0.0531
     52 H           6.5982    9.8058   11.4529 H       1  LIG1        0.0265
     53 H           5.6902   10.6482   10.4408 H       1  LIG1        0.0265
     54 C           5.4389   11.2277   12.4132 C.3     1  LIG1       -0.0531
     55 H           4.5322   11.6046   12.2846 H       1  LIG1        0.0265
     56 H           5.4556   10.7734   13.2909 H       1  LIG1        0.0265
     57 C           6.4457   12.3703   12.4341 C.3     1  LIG1       -0.0533
     58 H           7.3518   11.9979   12.5755 H       1  LIG1        0.0265
     59 H           6.4381   12.8217   11.5517 H       1  LIG1        0.0265
     60 C           6.1614   13.3997   13.5189 C.3     1  LIG1       -0.0559
     61 H           5.2603   13.7818   13.3665 H       1  LIG1        0.0263
     62 H           6.1519   12.9438   14.3961 H       1  LIG1        0.0263
     63 C           7.1733   14.5326   13.5649 C.3     1  LIG1       -0.0653
     64 H           8.0588   14.1713   13.7795 H       1  LIG1        0.0230
     65 H           6.9099   15.1791   14.2506 H       1  LIG1        0.0230
     66 H           7.2049   14.9780   12.6918 H       1  LIG1        0.0230
@<TRIPOS>BOND
     1    25    24    1
     2    23    22    1
     3    24    22   ar
     4    24    26   ar
     5    22    21   ar
     6    27    26    1
     7    26    28   ar
     8    21    20   ar
     9    28    20   ar
    10    28    29    1
    11    20    19    1
    12    19    17    1
    13    18    17    1
    14    17    15    2
    15    15    16    1
    16    15     3    1
    17     3     1   ar
    18     3     4   ar
    19     1     8   ar
    20     4     5    1
    21     4     6   ar
    22    11    10    1
    23     8     6   ar
    24     8     9    1
    25     6     7    1
    26    10     9   ar
    27    10    12   ar
    28     9     2   ar
    29    13    12    1
    30    12    14   ar
    31     2    14   ar
    32    14    30    1
    33    35    33    1
    34    32    30    1
    35    33    30    1
    36    33    34    1
    37    33    36    1
    38    30    31    1
    39    40    39    1
    40    37    36    1
    41    36    39    1
    42    36    38    1
    43    39    41    1
    44    39    42    1
    45    46    45    1
    46    43    42    1
    47    42    45    1
    48    42    44    1
    49    45    47    1
    50    45    48    1
    51    53    51    1
    52    49    48    1
    53    48    51    1
    54    48    50    1
    55    51    52    1
    56    51    54    1
    57    59    57    1
    58    55    54    1
    59    54    57    1
    60    54    56    1
    61    57    58    1
    62    57    60    1
    63    66    63    1
    64    61    60    1
    65    60    63    1
    66    60    62    1
    67    63    64    1
    68    63    65    1
