@<TRIPOS>MOLECULE
C47 H34 N2, C H Cl3
 88 96 0 0 0
SMALL
GASTEIGER

@<TRIPOS>ATOM
      1 N           0.8110    4.8407    5.4718 N.ar    1  LIG1       -0.2504
      2 N           0.8795    9.7543    8.0833 N.ar    1  LIG1       -0.2504
      3 C           2.3513    6.6616    5.7193 C.3     1  LIG1        0.0063
      4 C           1.3207    5.7221    6.3154 C.ar    1  LIG1        0.0486
      5 C           0.9814    5.7552    7.6785 C.ar    1  LIG1       -0.0246
      6 C           1.5931    6.7975    8.6138 C.3     1  LIG1       -0.0177
      7 C           2.3718    7.8882    7.8727 C.3     1  LIG1        0.0063
      8 C           1.4412    8.8935    7.2424 C.ar    1  LIG1        0.0486
      9 C           1.1719    8.9064    5.8601 C.ar    1  LIG1       -0.0246
     10 C           1.7085    7.8147    4.9522 C.3     1  LIG1       -0.0177
     11 C           3.2493    7.2175    6.8076 C.3     1  LIG1       -0.0359
     12 C          -0.0381    3.8804    5.9367 C.ar    1  LIG1        0.0796
     13 C          -0.5313    2.9143    5.0096 C.ar    1  LIG1        0.0081
     14 C          -1.3467    1.9246    5.4855 C.ar    1  LIG1       -0.0514
     15 C          -1.6717    1.8143    6.8336 C.ar    1  LIG1       -0.0528
     16 C          -1.2364    2.7291    7.7592 C.ar    1  LIG1       -0.0087
     17 C          -0.4128    3.8102    7.3094 C.ar    1  LIG1        0.0090
     18 C           0.1328    4.7930    8.1612 C.ar    1  LIG1       -0.0471
     19 C           0.0204   10.6982    7.6047 C.ar    1  LIG1        0.0796
     20 C          -0.6568   11.5254    8.5563 C.ar    1  LIG1        0.0081
     21 C          -1.5312   12.4625    8.0627 C.ar    1  LIG1       -0.0514
     22 C          -1.7503   12.6475    6.6873 C.ar    1  LIG1       -0.0528
     23 C          -1.0869   11.8818    5.7548 C.ar    1  LIG1       -0.0087
     24 C          -0.1940   10.8588    6.2210 C.ar    1  LIG1        0.0090
     25 C           0.3871    9.9114    5.3556 C.ar    1  LIG1       -0.0471
     26 C          -0.1939    2.9516    3.5631 C.ar    1  LIG1       -0.0158
     27 C           1.1125    3.0984    3.1092 C.ar    1  LIG1       -0.0540
     28 C           1.4009    3.0956    1.7569 C.ar    1  LIG1       -0.0612
     29 C           0.3874    2.9464    0.8368 C.ar    1  LIG1       -0.0617
     30 C          -0.9137    2.7984    1.2647 C.ar    1  LIG1       -0.0612
     31 C          -1.2020    2.8015    2.6156 C.ar    1  LIG1       -0.0540
     32 C          -1.6191    2.5340    9.1894 C.ar    1  LIG1       -0.0173
     33 C          -2.2391    3.5288    9.9373 C.ar    1  LIG1       -0.0540
     34 C          -2.6687    3.2855   11.2293 C.ar    1  LIG1       -0.0612
     35 C          -2.4855    2.0426   11.7926 C.ar    1  LIG1       -0.0617
     36 C          -1.8734    1.0425   11.0707 C.ar    1  LIG1       -0.0612
     37 C          -1.4443    1.2868    9.7800 C.ar    1  LIG1       -0.0540
     38 C          -0.4655   11.4110   10.0343 C.ar    1  LIG1       -0.0158
     39 C          -0.3464   10.1842   10.6797 C.ar    1  LIG1       -0.0540
     40 C          -0.1968   10.1140   12.0524 C.ar    1  LIG1       -0.0612
     41 C          -0.1643   11.2690   12.8017 C.ar    1  LIG1       -0.0617
     42 C          -0.2809   12.4944   12.1823 C.ar    1  LIG1       -0.0612
     43 C          -0.4306   12.5643   10.8109 C.ar    1  LIG1       -0.0540
     44 C          -1.3264   12.1391    4.3096 C.ar    1  LIG1       -0.0173
     45 C          -0.2712   12.2960    3.4168 C.ar    1  LIG1       -0.0540
     46 C          -0.5014   12.5727    2.0823 C.ar    1  LIG1       -0.0612
     47 C          -1.7921   12.6993    1.6188 C.ar    1  LIG1       -0.0617
     48 C          -2.8530   12.5494    2.4843 C.ar    1  LIG1       -0.0612
     49 C          -2.6215   12.2714    3.8188 C.ar    1  LIG1       -0.0540
     50 C           0.8071    3.6789   12.0510 C.3     2  LIG2        0.1805
     51 CL          0.8886    2.8211   13.5250 Cl      2  LIG2       -0.0870
     52 CL          0.6276    5.3551   12.3190 Cl      2  LIG2       -0.0870
     53 CL          2.1652    3.3504   11.0694 Cl      2  LIG2       -0.0870
     54 H           2.9190    6.1400    5.0821 H       1  LIG1        0.0367
     55 H           2.2157    6.3339    9.2427 H       1  LIG1        0.0320
     56 H           0.8556    7.2301    9.1319 H       1  LIG1        0.0320
     57 H           2.9626    8.3618    8.5262 H       1  LIG1        0.0367
     58 H           2.3951    8.2156    4.3452 H       1  LIG1        0.0320
     59 H           0.9520    7.4541    4.4067 H       1  LIG1        0.0320
     60 H           3.8759    7.8912    6.4152 H       1  LIG1        0.0278
     61 H           3.7750    6.4755    7.2232 H       1  LIG1        0.0278
     62 H          -1.7219    1.2572    4.8428 H       1  LIG1        0.0624
     63 H          -2.2390    1.0479    7.1371 H       1  LIG1        0.0624
     64 H          -0.1019    4.7872    9.1319 H       1  LIG1        0.0628
     65 H          -2.0331   13.0373    8.7095 H       1  LIG1        0.0624
     66 H          -2.3971   13.3456    6.3810 H       1  LIG1        0.0624
     67 H           0.2279    9.9714    4.3698 H       1  LIG1        0.0628
     68 H           1.8541    3.2089    3.7709 H       1  LIG1        0.0624
     69 H           2.3463    3.2026    1.4479 H       1  LIG1        0.0618
     70 H           0.5960    2.9433   -0.1408 H       1  LIG1        0.0618
     71 H          -1.6497    2.6896    0.5961 H       1  LIG1        0.0618
     72 H          -2.1484    2.6936    2.9177 H       1  LIG1        0.0624
     73 H          -2.3762    4.4345    9.5353 H       1  LIG1        0.0624
     74 H          -3.1129    4.0126   11.7530 H       1  LIG1        0.0618
     75 H          -2.7965    1.8668   12.7278 H       1  LIG1        0.0618
     76 H          -1.7401    0.1400   11.4809 H       1  LIG1        0.0618
     77 H          -1.0004    0.5543    9.2618 H       1  LIG1        0.0624
     78 H          -0.3683    9.3412   10.1423 H       1  LIG1        0.0624
     79 H          -0.1123    9.2243   12.5009 H       1  LIG1        0.0618
     80 H          -0.0556   11.2178   13.7943 H       1  LIG1        0.0618
     81 H          -0.2577   13.3330   12.7265 H       1  LIG1        0.0618
     82 H          -0.5146   13.4576   10.3693 H       1  LIG1        0.0624
     83 H           0.6698   12.2050    3.7463 H       1  LIG1        0.0624
     84 H           0.2696   12.6816    1.4548 H       1  LIG1        0.0618
     85 H          -1.9593   12.9000    0.6536 H       1  LIG1        0.0618
     86 H          -3.7903   12.6408    2.1480 H       1  LIG1        0.0618
     87 H          -3.3964   12.1638    4.4409 H       1  LIG1        0.0624
     88 H          -0.0043    3.3614   11.5602 H       2  LIG2        0.0806
@<TRIPOS>BOND
     1    70    29    1
     2    71    30    1
     3    85    47    1
     4    29    30   ar
     5    29    28   ar
     6    30    31   ar
     7    69    28    1
     8    84    46    1
     9    47    46   ar
    10    47    48   ar
    11    28    27   ar
    12    46    45   ar
    13    86    48    1
    14    48    49   ar
    15    31    72    1
    16    31    26   ar
    17    27    26   ar
    18    27    68    1
    19    45    83    1
    20    45    44   ar
    21    26    13    1
    22    49    44   ar
    23    49    87    1
    24    44    23    1
    25    58    10    1
    26    67    25    1
    27    59    10    1
    28    62    14    1
    29    10     3    1
    30    10     9    1
    31    13    14   ar
    32    13    12   ar
    33    54     3    1
    34    25     9   ar
    35    25    24   ar
    36     1    12   ar
    37     1     4   ar
    38    14    15   ar
    39     3     4    1
    40     3    11    1
    41    23    24   ar
    42    23    22   ar
    43     9     8   ar
    44    12    17   ar
    45    24    19   ar
    46     4     5   ar
    47    66    22    1
    48    60    11    1
    49    22    21   ar
    50    11    61    1
    51    11     7    1
    52    15    63    1
    53    15    16   ar
    54     8     7    1
    55     8     2   ar
    56    17    16   ar
    57    17    18   ar
    58    19     2   ar
    59    19    20   ar
    60     5    18   ar
    61     5     6    1
    62    16    32    1
    63     7    57    1
    64     7     6    1
    65    21    20   ar
    66    21    65    1
    67    18    64    1
    68    20    38    1
    69     6    56    1
    70     6    55    1
    71    32    37   ar
    72    32    33   ar
    73    77    37    1
    74    73    33    1
    75    37    36   ar
    76    33    34   ar
    77    38    39   ar
    78    38    43   ar
    79    78    39    1
    80    82    43    1
    81    39    40   ar
    82    43    42   ar
    83    53    50    1
    84    36    76    1
    85    36    35   ar
    86    34    74    1
    87    34    35   ar
    88    88    50    1
    89    35    75    1
    90    50    52    1
    91    50    51    1
    92    40    79    1
    93    40    41   ar
    94    42    81    1
    95    42    41   ar
    96    41    80    1
