@<TRIPOS>MOLECULE
?
 20 19 0 0 0
SMALL
GASTEIGER

@<TRIPOS>ATOM
      1 CL          1.0082    3.8086    5.2725 Cl      1  LIG1        0.0000
      2 C           2.6284    6.1469    7.8066 C.2     2  LIG2       -0.0100
      3 H           1.9982    6.5431    8.3633 H       2  LIG2        0.0778
      4 C           3.4264    5.1247    8.2647 C.2     2  LIG2       -0.0606
      5 H           3.3255    4.8167    9.1355 H       2  LIG2        0.0591
      6 C           4.3833    4.5481    7.4352 C.3     2  LIG2        0.0296
      7 H           4.9287    3.8638    7.7504 H       2  LIG2        0.0414
      8 C           4.5143    5.0107    6.1214 C.2     2  LIG2        0.0351
      9 C           3.6655    6.0294    5.6957 C.2     2  LIG2        0.0113
     10 H           3.7170    6.3408    4.8208 H       2  LIG2        0.0797
     11 C           6.3208    3.5206    5.3993 C.2     2  LIG2        0.4045
     12 C           8.1436    2.3737    4.4876 C.3     2  LIG2        0.1281
     13 H           7.6274    1.5539    4.5422 H       2  LIG2        0.0732
     14 H           8.7116    2.4313    5.2712 H       2  LIG2        0.0732
     15 N           2.7788    6.5602    6.5403 N.pl3   2  LIG2       -0.3254
     16 H           2.2779    7.2002    6.2585 H       2  LIG2        0.1511
     17 N           5.4554    4.5574    5.1961 N.am    2  LIG2       -0.2531
     18 H           5.4942    4.9624    4.4385 H       2  LIG2        0.1579
     19 O           6.2728    2.7198    6.2985 O.2     2  LIG2       -0.2261
     20 O           7.2550    3.5180    4.4317 O.3     2  LIG2       -0.4467
@<TRIPOS>BOND
     1    20    12    1
     2    20    11    1
     3    18    17    1
     4    12    13    1
     5    12    14    1
     6    10     9    1
     7    17    11   am
     8    17     8    1
     9    11    19    2
    10     9     8    2
    11     9    15    1
    12     8     6    1
    13    16    15    1
    14    15     2    1
    15     6     7    1
    16     6     4    1
    17     2     4    2
    18     2     3    1
    19     4     5    1
