@<TRIPOS>MOLECULE
?
 46 44 0 0 0
SMALL
GASTEIGER

@<TRIPOS>ATOM
      1 S           4.9909    3.2067    8.6829 S.3     1  LIG1       -0.0011
      2 O           5.3842    4.2780    7.8788 O.2     1  LIG1       -0.3452
      3 O           6.0224    2.5084    9.3375 O.3     1  LIG1       -0.2682
      4 O           4.1568    2.2895    7.9584 O.2     1  LIG1       -0.3452
      5 O           3.9533    3.7635    9.7268 O.3     1  LIG1       -0.2580
      6 O           8.9666    1.2708    7.8024 O.3     2  LIG2       -0.3775
      7 O           9.2681    2.9732    5.5004 O.3     2  LIG2       -0.3751
      8 O           9.0139    1.7346    2.9109 O.3     2  LIG2       -0.2324
      9 N           5.4934   -1.1023    7.7738 N.pl3   3  LIG3       -0.3166
     10 N           6.6470   -0.6849    6.0033 N.pl3   3  LIG3       -0.3166
     11 C           6.2246   -0.1830    7.1479 C.3     3  LIG3        0.1248
     12 C           6.1524   -1.9595    5.8802 C.2     3  LIG3        0.0072
     13 C           5.4431   -2.2242    6.9824 C.2     3  LIG3        0.0072
     14 C           4.8297   -0.9144    9.0691 C.3     3  LIG3        0.0020
     15 C           7.5275   -0.0080    5.0422 C.3     3  LIG3        0.0020
     16 C           4.5070    4.7704   10.6412 C.3     1  LIG1        0.0637
     17 C           9.1648    2.6681    7.8725 C.3     2  LIG2        0.0710
     18 C           8.5571    3.3125    6.6896 C.3     2  LIG2        0.0711
     19 C           8.7190    3.6043    4.3664 C.3     2  LIG2        0.0741
     20 C           9.3682    3.0918    3.1464 C.3     2  LIG2        0.1061
     21 C           9.3082   -0.8687    8.8177 C.3     2  LIG2       -0.0274
     22 C           9.5876    0.5804    8.8951 C.3     2  LIG2        0.0478
     23 H           6.3953    0.5776    7.4471 H       3  LIG3        0.0746
     24 H           6.3041   -2.4390    5.1663 H       3  LIG3        0.0793
     25 H           5.0407   -2.9388    7.1925 H       3  LIG3        0.0793
     26 H           5.2103   -1.4553    9.6324 H       3  LIG3        0.0428
     27 H           3.9151   -1.1610    9.0171 H       3  LIG3        0.0428
     28 H           4.8895    0.0278    9.3460 H       3  LIG3        0.0428
     29 H           7.1348    0.1142    4.3388 H       3  LIG3        0.0428
     30 H           7.8747    0.7633    5.3890 H       3  LIG3        0.0428
     31 H           8.2673   -0.5425    4.8480 H       3  LIG3        0.0428
     32 H           5.4449    4.5796   10.9372 H       1  LIG1        0.0547
     33 H           5.0081    5.6354   10.2296 H       1  LIG1        0.0547
     34 H           3.7154    5.1018   11.1494 H       1  LIG1        0.0547
     35 H          10.1633    2.8664    7.9138 H       2  LIG2        0.0583
     36 H           8.6323    3.0565    8.7095 H       2  LIG2        0.0583
     37 H           7.6856    3.0765    6.6514 H       2  LIG2        0.0583
     38 H           8.5063    4.2518    6.8424 H       2  LIG2        0.0583
     39 H           7.7329    3.3903    4.2646 H       2  LIG2        0.0584
     40 H           8.8835    4.5920    4.4131 H       2  LIG2        0.0584
     41 H           9.1988    3.6276    2.3869 H       2  LIG2        0.0615
     42 H          10.3799    3.1171    3.1613 H       2  LIG2        0.0615
     43 H           9.5941   -1.2701    9.6642 H       2  LIG2        0.0288
     44 H           8.3692   -1.0668    8.7837 H       2  LIG2        0.0288
     45 H           9.3131    0.8848    9.6642 H       2  LIG2        0.0560
     46 H          10.5583    0.7884    8.9216 H       2  LIG2        0.0560
@<TRIPOS>BOND
     1    41    20    1
     2     8    20    1
     3    20    42    1
     4    20    19    1
     5    39    19    1
     6    29    15    1
     7    19    40    1
     8    19     7    1
     9    31    15    1
    10    15    30    1
    11    15    10    1
    12    24    12    1
    13     7    18    1
    14    12    10    1
    15    12    13    2
    16    10    11    1
    17    37    18    1
    18    18    38    1
    19    18    17    1
    20    13    25    1
    21    13     9    1
    22    11    23    1
    23    11     9    1
    24     9    14    1
    25     6    17    1
    26     6    22    1
    27    17    35    1
    28    17    36    1
    29     2     1    2
    30     4     1    2
    31     1     3    1
    32     1     5    1
    33    44    21    1
    34    21    22    1
    35    21    43    1
    36    22    46    1
    37    22    45    1
    38    27    14    1
    39    14    28    1
    40    14    26    1
    41     5    16    1
    42    33    16    1
    43    16    32    1
    44    16    34    1
