@<TRIPOS>MOLECULE
C6 Cl3 O5 S, C6 H4 S4
 29 30 0 0 0
SMALL
GASTEIGER

@<TRIPOS>ATOM
      1 CL          5.4277    6.1669    8.6126 Cl      1  LIG1       -0.0779
      2 CL          8.6727    2.8574   11.2102 Cl      1  LIG1       -0.0773
      3 CL          2.9612    5.1812   10.4098 Cl      1  LIG1       -0.0779
      4 S           1.7725    7.1091    7.6494 S.3     2  LIG2       -0.0880
      5 S           3.6240    6.8712    5.4258 S.3     2  LIG2       -0.0880
      6 S           1.0368    3.9849    7.3793 S.3     2  LIG2       -0.0880
      7 S           2.9238    3.7052    5.1964 S.3     2  LIG2       -0.0880
      8 S           6.2088    2.0022   13.4142 S.3     1  LIG1        0.1449
      9 O           7.9411    5.2727    9.8348 O.2     1  LIG1       -0.2847
     10 O           3.9080    3.7676   12.7366 O.2     1  LIG1       -0.2841
     11 O           5.9921    2.7962   14.5906 O.3     1  LIG1       -0.0425
     12 O           5.1225    1.1052   13.1177 O.2     1  LIG1       -0.1395
     13 O           7.4888    1.3684   13.3357 O.2     1  LIG1       -0.1395
     14 C           2.7332    8.4936    7.2561 C.2     2  LIG2       -0.0167
     15 C           3.5807    8.3782    6.2502 C.2     2  LIG2       -0.0167
     16 C           2.4975    6.0957    6.4606 C.2     2  LIG2        0.0695
     17 C           2.1850    4.7361    6.3586 C.2     2  LIG2        0.0695
     18 C           1.2451    2.4262    6.7258 C.2     2  LIG2       -0.0167
     19 C           2.1246    2.2874    5.7381 C.2     2  LIG2       -0.0167
     20 C           6.9807    4.7101   10.2793 C.2     1  LIG1        0.2189
     21 C           5.5918    5.1113    9.9604 C.2     1  LIG1        0.1111
     22 C           7.1240    3.5678   11.2487 C.2     1  LIG1        0.1202
     23 C           4.5650    4.7337   10.7022 C.2     1  LIG1        0.1116
     24 C           6.1161    3.2082   12.0710 C.2     1  LIG1        0.1894
     25 C           4.7936    3.8922   11.9143 C.2     1  LIG1        0.2275
     26 H           2.6334    9.2116    7.8777 H       2  LIG2        0.0699
     27 H           4.1182    9.0298    5.9485 H       2  LIG2        0.0699
     28 H           0.7668    1.7519    7.1681 H       2  LIG2        0.0699
     29 H           2.3100    1.4378    5.3570 H       2  LIG2        0.0699
@<TRIPOS>BOND
     1     7    19    1
     2     7    17    2
     3    29    19    1
     4     5    15    1
     5     5    16    2
     6    19    18    2
     7    27    15    1
     8    15    14    2
     9    17    16    1
    10    17     6    1
    11    16     4    1
    12    18    28    1
    13    18     6    1
    14    14     4    1
    15    14    26    1
    16     1    21    1
    17     9    20    2
    18    21    20    1
    19    21    23    2
    20    20    22    1
    21     3    23    1
    22    23    25    1
    23     2    22    1
    24    22    24    2
    25    25    24    1
    26    25    10    2
    27    24     8    1
    28    12     8    2
    29    13     8    2
    30     8    11    1
