@<TRIPOS>MOLECULE
?
 46 45 0 0 0
SMALL
GASTEIGER

@<TRIPOS>ATOM
      1 C           3.3432    3.9689    4.3074 C.3     1  LIG1        0.1901
      2 C           2.5813    5.2237    4.7298 C.3     1  LIG1        0.0044
      3 C           4.8285    3.2028    0.0589 C.ar    2  LIG2        0.0283
      4 C           4.6763    2.8303   -1.2778 C.ar    2  LIG2       -0.0430
      5 C           4.7917    1.5269   -1.6197 C.ar    2  LIG2       -0.0511
      6 C           5.0811    0.5652   -0.6266 C.ar    2  LIG2        0.0022
      7 C           5.2104    1.0448    0.6939 C.ar    2  LIG2        0.0923
      8 C           5.5330    0.1016    1.7260 C.ar    2  LIG2        0.0610
      9 C           5.7028   -1.2613    1.4443 C.ar    2  LIG2       -0.0164
     10 C           6.0334   -2.1239    2.5032 C.3     2  LIG2        0.0158
     11 C           6.2052   -1.6398    3.7670 C.2     2  LIG2       -0.0619
     12 C           6.0284   -0.2819    3.9967 C.2     2  LIG2       -0.0095
     13 C           5.2526   -0.8249   -0.8937 C.ar    2  LIG2       -0.0522
     14 C           5.5460   -1.6992    0.0845 C.ar    2  LIG2       -0.0555
     15 N           3.4144    3.9702    2.8734 N.4     1  LIG1        0.2404
     16 H           2.6599    3.6381    2.5390 H       1  LIG1        0.2012
     17 H           4.1014    3.4701    2.6095 H       1  LIG1        0.2012
     18 H           3.5259    4.8034    2.5826 H       1  LIG1        0.2012
     19 N           5.0699    2.3408    1.0406 N.ar    2  LIG2       -0.2531
     20 N           5.7050    0.5295    3.0020 N.pl3   2  LIG2       -0.3189
     21 O           5.8502    2.9883    4.1792 O.2     1  LIG1       -0.2494
     22 O           5.6184    5.4121    4.5878 O.3     1  LIG1       -0.3181
     23 O           5.0137    3.8182    6.4546 O.3     1  LIG1       -0.1353
     24 O           3.2952    1.3016    4.4827 O.2     1  LIG1       -0.2494
     25 O           1.2047    2.3919    3.8408 O.3     1  LIG1       -0.3181
     26 O           1.9409    2.5924    6.2411 O.3     1  LIG1       -0.1353
     27 O           3.4736    8.8782    5.1114 O.3     3  HOH3       -0.4105
     28 O           7.6769    4.5645    1.6620 O.3     4  HOH4        0.0000
     29 P           5.0577    3.9993    4.9654 P.3     1  LIG1        0.4186
     30 P           2.3834    2.4985    4.8412 P.3     1  LIG1        0.4186
     31 H           5.4839    5.9962    5.1984 H       1  LIG1        0.2200
     32 H           0.3500    2.8227    4.0205 H       1  LIG1        0.2200
     33 H           4.7869    4.2085    0.3329 H       2  LIG2        0.0830
     34 H           4.4185    3.5071   -1.9462 H       2  LIG2        0.0633
     35 H           4.7062    1.1847   -2.4840 H       2  LIG2        0.0625
     36 H           1.6802    5.1885    4.3918 H       1  LIG1        0.0300
     37 H           2.5604    5.3194    5.6594 H       1  LIG1        0.0300
     38 H           3.0015    5.9685    4.3918 H       1  LIG1        0.0300
     39 H           5.6494    1.3178    3.1498 H       2  LIG2        0.1517
     40 H           2.7856    8.8222    5.6338 H       0  HOH0        0.2052
     41 H           4.0833    8.5298    5.5698 H       0  HOH0        0.2052
     42 H           6.1910   -2.9878    2.3175 H       2  LIG2        0.0401
     43 H           6.4279   -2.1752    4.5198 H       2  LIG2        0.0591
     44 H           6.1191    0.1103    4.8783 H       2  LIG2        0.0778
     45 H           5.2036   -1.0920   -1.7157 H       2  LIG2        0.0624
     46 H           5.6826   -2.6165   -0.1024 H       2  LIG2        0.0621
@<TRIPOS>BOND
     1    35     5    1
     2    34     4    1
     3    45    13    1
     4     5     4   ar
     5     5     6   ar
     6     4     3   ar
     7    13     6   ar
     8    13    14   ar
     9     6     7   ar
    10    46    14    1
    11     3    33    1
    12     3    19   ar
    13    14     9   ar
    14     7    19   ar
    15     7     8   ar
    16     9     8   ar
    17     9    10    1
    18     8    20    1
    19    42    10    1
    20    10    11    1
    21    16    15    1
    22    18    15    1
    23    17    15    1
    24    15     1    1
    25    20    39    1
    26    20    12    1
    27    11    12    2
    28    11    43    1
    29    25    32    1
    30    25    30    1
    31    12    44    1
    32    21    29    2
    33     1     2    1
    34     1    30    1
    35     1    29    1
    36    38     2    1
    37    36     2    1
    38    24    30    2
    39    22    29    1
    40    22    31    1
    41     2    37    1
    42    30    26    1
    43    29    23    1
    44    27    41    1
    45    27    40    1
