@<TRIPOS>MOLECULE
?
 25 25 0 0 0
SMALL
GASTEIGER

@<TRIPOS>ATOM
      1 CL         -0.1814    2.7338    5.9946 Cl      1  LIG1        0.0000
      2 N           0.9321    3.4482    8.9589 N.3     2  LIG2       -0.2825
      3 H           0.4658    3.4297    8.2609 H       2  LIG2        0.1250
      4 N           2.3096    2.0424    7.7798 N.3     2  LIG2       -0.2825
      5 H           1.7141    2.1273    7.1327 H       2  LIG2        0.1250
      6 N           2.9716    2.7898    9.8749 N.3     2  LIG2       -0.2685
      7 C           2.0950    2.7791    8.8692 C.3     2  LIG2        0.1750
      8 C           0.7122    4.4600    9.9830 C.3     2  LIG2       -0.0000
      9 H          -0.2580    4.6150   10.1041 H       2  LIG2        0.0425
     10 H           1.1337    5.3139    9.7113 H       2  LIG2        0.0425
     11 C           1.3237    3.9683   11.2770 C.3     2  LIG2       -0.0274
     12 H           0.8471    3.1580   11.5868 H       2  LIG2        0.0290
     13 H           1.2368    4.6653   11.9751 H       2  LIG2        0.0290
     14 C           2.7907    3.6472   11.0506 C.3     2  LIG2        0.0030
     15 H           3.2956    4.4891   10.9234 H       2  LIG2        0.0428
     16 H           3.1540    3.1901   11.8501 H       2  LIG2        0.0428
     17 C           4.3367    2.3004    9.6361 C.3     2  LIG2        0.0030
     18 H           4.7748    2.1030   10.5012 H       2  LIG2        0.0428
     19 H           4.8650    2.9999    9.1759 H       2  LIG2        0.0428
     20 C           4.3020    1.0481    8.7858 C.3     2  LIG2       -0.0274
     21 H           5.2259    0.7615    8.5757 H       2  LIG2        0.0290
     22 H           3.8584    0.3178    9.2847 H       2  LIG2        0.0290
     23 C           3.5487    1.3196    7.5032 C.3     2  LIG2       -0.0000
     24 H           4.1159    1.8555    6.8929 H       2  LIG2        0.0425
     25 H           3.3388    0.4628    7.0547 H       2  LIG2        0.0425
@<TRIPOS>BOND
     1    24    23    1
     2    25    23    1
     3     5     4    1
     4    23     4    1
     5    23    20    1
     6     4     7    1
     7     3     2    1
     8    21    20    1
     9    20    22    1
    10    20    17    1
    11     7     2    1
    12     7     6    1
    13     2     8    1
    14    19    17    1
    15    17     6    1
    16    17    18    1
    17    10     8    1
    18     6    14    1
    19     8     9    1
    20     8    11    1
    21    15    14    1
    22    14    11    1
    23    14    16    1
    24    11    12    1
    25    11    13    1
