@<TRIPOS>MOLECULE
C7 H5 N O4
 17 17 0 0 0
SMALL
GASTEIGER

@<TRIPOS>ATOM
      1 O           0.1846    1.7460    7.1658 O.3     1  LIG1       -0.4773
      2 N           3.5687    0.5898    4.9925 N.pl3   1  LIG1       -0.3262
      3 O           2.7125   -2.0686    9.1106 O.co2   1  LIG1       -0.2450
      4 O           1.1850    0.7901    8.9339 O.2     1  LIG1       -0.2454
      5 C           2.0486    0.3453    6.7826 C.2     1  LIG1        0.0726
      6 C           2.0104   -1.8297    8.1111 C.2     1  LIG1        0.3720
      7 O           0.8742   -2.2987    7.8585 O.co2   1  LIG1       -0.2450
      8 C           1.0786    0.9827    7.7400 C.2     1  LIG1        0.3354
      9 C           2.5701   -0.9312    7.0259 C.3     1  LIG1        0.1475
     10 C           4.0961   -0.6211    5.2126 C.2     1  LIG1       -0.0092
     11 C           3.6031   -1.4188    6.2237 C.2     1  LIG1       -0.0471
     12 C           2.5579    1.0848    5.7289 C.2     1  LIG1        0.0047
     13 H           2.2556    1.9799    5.5325 H       1  LIG1        0.0786
     14 H           3.9658   -2.3055    6.3100 H       1  LIG1        0.0599
     15 H           4.8183   -0.8500    4.6648 H       1  LIG1        0.0778
     16 H           3.9658    1.0822    4.3674 H       1  LIG1        0.1511
     17 H          -0.1430    2.2999    7.7969 H       1  LIG1        0.2954
@<TRIPOS>BOND
     1    16     2    1
     2    15    10    1
     3     2    10    1
     4     2    12    1
     5    10    11    2
     6    13    12    1
     7    12     5    2
     8    11    14    1
     9    11     9    1
    10     5     9    1
    11     5     8    1
    12     9     6    1
    13     1     8    1
    14     1    17    1
    15     8     4    2
    16     7     6   ar
    17     6     3   ar
