@<TRIPOS>MOLECULE
(1R,2R)-1,3-dihydroxy-N,N-dimethyl-1-[4-(methylthio)phenyl]propan- 2-aminium (1R,3R)-2,2-dimethyl-3-(2-methylprop-1-enyl)- cyclopropanecarboxylate, methanol solvated
 69 68 0 0 0
SMALL
GASTEIGER

@<TRIPOS>ATOM
      1 S           3.7244   -2.1634   25.8673 S.3     1  LIG1       -0.1286
      2 O           3.3921    6.7267   21.5310 O.co2   2  LIG2       -0.2460
      3 O           1.7204    5.3956   22.0483 O.co2   2  LIG2       -0.2460
      4 O          -1.3636   -0.8255   21.7631 O.3     1  LIG1       -0.3815
      5 H          -1.4964   -1.0060   20.9753 H       1  LIG1        0.2105
      6 O          -0.2784    3.7214   22.8122 O.3     1  LIG1       -0.3894
      7 H           0.2741    4.3177   22.7059 H       1  LIG1        0.2097
      8 N          -1.8729    1.8531   21.2495 N.4     1  LIG1        0.2368
      9 H          -2.2972    1.1135   20.9588 H       1  LIG1        0.2032
     10 C           2.8081    5.9511   22.3246 C.2     2  LIG2        0.3601
     11 C           3.4615    5.7031   23.6426 C.3     2  LIG2        0.0731
     12 H           4.4376    5.7879   23.6288 H       2  LIG2        0.0426
     13 C           2.9427    4.6660   24.6150 C.3     2  LIG2       -0.0032
     14 H           2.1068    4.2311   24.3485 H       2  LIG2        0.0357
     15 C           2.8181    6.1377   24.9487 C.3     2  LIG2       -0.0143
     16 C           3.9338    3.7724   25.2676 C.2     2  LIG2       -0.0809
     17 H           4.8248    4.0370   25.2440 H       2  LIG2        0.0575
     18 C           3.6590    2.6256   25.8849 C.2     2  LIG2       -0.0793
     19 C           4.8241    1.7942   26.4441 C.3     2  LIG2       -0.0440
     20 H           4.4806    0.9928   26.8482 H       2  LIG2        0.0274
     21 H           5.2957    2.3070   27.1037 H       2  LIG2        0.0274
     22 H           5.4230    1.5621   25.7302 H       2  LIG2        0.0274
     23 C           2.2700    2.0946   26.0456 C.3     2  LIG2       -0.0440
     24 H           2.3007    1.2512   26.5021 H       2  LIG2        0.0274
     25 H           1.8714    1.9739   25.1808 H       2  LIG2        0.0274
     26 H           1.7461    2.7162   26.5543 H       2  LIG2        0.0274
     27 C           3.7470    6.7128   25.9909 C.3     2  LIG2       -0.0585
     28 H           3.5567    7.6464   26.1093 H       2  LIG2        0.0235
     29 H           4.6566    6.6063   25.7027 H       2  LIG2        0.0235
     30 H           3.6189    6.2522   26.8235 H       2  LIG2        0.0235
     31 C           1.4649    6.7558   24.9141 C.3     2  LIG2       -0.0585
     32 H           1.5307    7.6844   25.1506 H       2  LIG2        0.0235
     33 H           0.8910    6.3073   25.5379 H       2  LIG2        0.0235
     34 H           1.0992    6.6758   24.0299 H       2  LIG2        0.0235
     35 C          -0.8144    1.4460   22.2647 C.3     1  LIG1        0.0329
     36 H          -1.2552    1.3522   23.1344 H       1  LIG1        0.0903
     37 C          -0.2719    0.0679   21.8648 C.3     1  LIG1        0.1247
     38 H           0.1710    0.1364   20.9946 H       1  LIG1        0.0701
     39 C           0.2769    2.4866   22.4092 C.3     1  LIG1        0.0896
     40 H           0.9246    2.1903   23.0685 H       1  LIG1        0.0615
     41 H           0.7364    2.5969   21.5632 H       1  LIG1        0.0615
     42 C           0.7113   -0.4697   22.8836 C.ar    1  LIG1       -0.0136
     43 C           2.0589   -0.5981   22.5941 C.ar    1  LIG1       -0.0549
     44 H           2.3730   -0.3331   21.7609 H       1  LIG1        0.0621
     45 C           2.9505   -1.1134   23.5236 C.ar    1  LIG1       -0.0480
     46 H           3.8537   -1.1830   23.3129 H       1  LIG1        0.0629
     47 C           2.4968   -1.5256   24.7680 C.ar    1  LIG1        0.0076
     48 C           1.1479   -1.4156   25.0688 C.ar    1  LIG1       -0.0480
     49 H           0.8337   -1.6972   25.8978 H       1  LIG1        0.0629
     50 C           0.2591   -0.8853   24.1337 C.ar    1  LIG1       -0.0549
     51 H          -0.6434   -0.8079   24.3458 H       1  LIG1        0.0621
     52 C           2.9047   -2.2690   27.4171 C.3     1  LIG1       -0.0135
     53 H           3.5102   -2.6153   28.0761 H       1  LIG1        0.0344
     54 H           2.1476   -2.8540   27.3399 H       1  LIG1        0.0344
     55 H           2.6085   -1.3955   27.6833 H       1  LIG1        0.0344
     56 C          -2.9827    2.6452   21.8659 C.3     1  LIG1       -0.0429
     57 H          -3.3026    2.1916   22.6482 H       1  LIG1        0.0778
     58 H          -3.6998    2.7372   21.2335 H       1  LIG1        0.0778
     59 H          -2.6579    3.5150   22.1098 H       1  LIG1        0.0778
     60 C          -1.3497    2.5177   20.0342 C.3     1  LIG1       -0.0429
     61 H          -0.6398    1.9896   19.6623 H       1  LIG1        0.0778
     62 H          -1.0155    3.3878   20.2639 H       1  LIG1        0.0778
     63 H          -2.0553    2.6061   19.3904 H       1  LIG1        0.0778
     64 C           1.7254    2.3752   18.0611 C.3     1  LIG1        0.0330
     65 H           1.4663    3.2697   18.2944 H       1  LIG1        0.0521
     66 H           1.1837    2.0644   17.3329 H       1  LIG1        0.0521
     67 H           2.6493    2.3687   17.7999 H       1  LIG1        0.0521
     68 O           1.5522    1.5555   19.1388 O.3     1  LIG1       -0.3982
     69 H           2.0853    0.9338   19.0992 H       1  LIG1        0.2090
@<TRIPOS>BOND
     1    66    64    1
     2    67    64    1
     3    64    65    1
     4    64    68    1
     5    69    68    1
     6    63    60    1
     7    61    60    1
     8    60    62    1
     9    60     8    1
    10     9     8    1
    11     5     4    1
    12    38    37    1
    13    58    56    1
    14     8    56    1
    15     8    35    1
    16     2    10   ar
    17    41    39    1
    18    44    43    1
    19     4    37    1
    20    37    35    1
    21    37    42    1
    22    56    59    1
    23    56    57    1
    24     3    10   ar
    25    35    39    1
    26    35    36    1
    27    10    11    1
    28    39     6    1
    29    39    40    1
    30    43    42   ar
    31    43    45   ar
    32     7     6    1
    33    42    50   ar
    34    46    45    1
    35    45    47   ar
    36    12    11    1
    37    11    13    1
    38    11    15    1
    39    34    31    1
    40    50    51    1
    41    50    48   ar
    42    14    13    1
    43    13    15    1
    44    13    16    1
    45    47    48   ar
    46    47     1    1
    47    31    15    1
    48    31    32    1
    49    31    33    1
    50    15    27    1
    51    48    49    1
    52    25    23    1
    53    17    16    1
    54    16    18    2
    55    29    27    1
    56    22    19    1
    57     1    52    1
    58    18    23    1
    59    18    19    1
    60    27    28    1
    61    27    30    1
    62    23    24    1
    63    23    26    1
    64    19    20    1
    65    19    21    1
    66    54    52    1
    67    52    55    1
    68    52    53    1
