@<TRIPOS>MOLECULE
4-methylpyridine pentafluoroiodobenzene
 26 26 0 0 0
SMALL
GASTEIGER

@<TRIPOS>ATOM
      1 I           0.7316    7.8351    8.9898 I       1  LIG1       -0.0377
      2 F          -0.0963    9.3405    6.2513 F       1  LIG1       -0.2012
      3 F          -0.2392   11.9334    5.5860 F       1  LIG1       -0.1993
      4 F           0.5164   13.8538    7.3741 F       1  LIG1       -0.1993
      5 F           1.3353   13.1452    9.8595 F       1  LIG1       -0.1993
      6 F           1.4486   10.5512   10.5601 F       1  LIG1       -0.2012
      7 C           0.6832    9.8590    8.4267 C.ar    1  LIG1        0.0895
      8 C           0.2670   10.2619    7.1707 C.ar    1  LIG1        0.1772
      9 C           0.2010   11.5896    6.8041 C.ar    1  LIG1        0.1974
     10 C           0.5707   12.5586    7.7111 C.ar    1  LIG1        0.1991
     11 C           0.9851   12.2013    8.9784 C.ar    1  LIG1        0.1974
     12 C           1.0483   10.8622    9.3211 C.ar    1  LIG1        0.1772
     13 N           0.9196    5.2232    9.9989 N.ar    2  LIG2       -0.2632
     14 C           0.7772    4.0172    9.4257 C.ar    2  LIG2        0.0278
     15 H           0.5252    3.9847    8.5312 H       2  LIG2        0.0829
     16 C           0.9848    2.8222   10.0858 C.ar    2  LIG2       -0.0407
     17 H           0.8853    2.0142    9.6361 H       2  LIG2        0.0635
     18 C           1.3450    2.8363   11.4312 C.ar    2  LIG2       -0.0476
     19 C           1.4919    4.0864   12.0246 C.ar    2  LIG2       -0.0407
     20 H           1.7337    4.1514   12.9203 H       2  LIG2        0.0635
     21 C           1.2794    5.2249   11.2801 C.ar    2  LIG2        0.0278
     22 H           1.3944    6.0484   11.6983 H       2  LIG2        0.0829
     23 C           1.5612    1.5665   12.2060 C.3     2  LIG2       -0.0396
     24 H           1.5940    1.7670   13.1445 H       2  LIG2        0.0278
     25 H           0.8115    0.9930   12.0284 H       2  LIG2        0.0278
     26 H           2.3730    1.1244   11.9427 H       2  LIG2        0.0278
@<TRIPOS>BOND
     1     3     9    1
     2     2     8    1
     3     9     8   ar
     4     9    10   ar
     5     8     7   ar
     6     4    10    1
     7    10    11   ar
     8     7     1    1
     9     7    12   ar
    10    15    14    1
    11    11    12   ar
    12    11     5    1
    13    12     6    1
    14    14    13   ar
    15    14    16   ar
    16    17    16    1
    17    13    21   ar
    18    16    18   ar
    19    21    22    1
    20    21    19   ar
    21    18    19   ar
    22    18    23    1
    23    26    23    1
    24    19    20    1
    25    25    23    1
    26    23    24    1
