@<TRIPOS>MOLECULE
?
 23 21 0 0 0
SMALL
GASTEIGER

@<TRIPOS>ATOM
      1 C           2.2878    2.8293   10.2802 C.2     1  LIG1        0.3553
      2 CA          1.7356    3.4238    9.0216 C.ar    1  LIG1        0.1483
      3 C           1.6945    4.7925    8.7877 C.ar    1  LIG1       -0.0292
      4 H           2.0037    5.4061    9.4442 H       1  LIG1        0.0641
      5 C           1.1929    5.2431    7.5769 C.ar    1  LIG1       -0.0573
      6 H           1.1755    6.1724    7.3806 H       1  LIG1        0.0619
      7 C           0.7172    4.3236    6.6578 C.ar    1  LIG1       -0.0292
      8 H           0.3693    4.6055    5.8206 H       1  LIG1        0.0641
      9 CA          0.7634    2.9762    6.9957 C.ar    1  LIG1        0.1483
     10 C           0.1889    1.9365    6.0771 C.2     1  LIG1        0.3553
     11 N           1.2763    2.5236    8.1381 N.ar    1  LIG1       -0.2336
     12 OXT         2.6621    3.7198   11.1658 O.3     1  LIG1       -0.4761
     13 HXT         2.9515    3.3295   11.8499 H       1  LIG1        0.2955
     14 O           2.3781    1.6230   10.4476 O.2     1  LIG1       -0.2434
     15 OXT         0.2028    0.6795    6.4868 O.3     1  LIG1       -0.4761
     16 HXT         0.5435    0.6391    7.2537 H       1  LIG1        0.2955
     17 O          -0.3107    2.2288    5.0089 O.2     1  LIG1       -0.2434
     18 O           1.1716   -0.3276    8.7776 O.3     2  HOH2       -0.4105
     19 H           1.5778    0.3981    9.2677 H       0  HOH0        0.2052
     20 H           0.2387    2.7755    3.2406 H       0  HOH0        0.2052
     21 O           0.5882    2.8610    2.4821 O.3     3  HOH3       -0.4105
     22 H           0.6147   -0.6856    9.3560 H       0  HOH0        0.2052
     23 H           0.9049    3.7043    2.3992 H       0  HOH0        0.2052
@<TRIPOS>BOND
     1    23    21    1
     2    21    20    1
     3    17    10    2
     4     8     7    1
     5    10    15    1
     6    10     9    1
     7    15    16    1
     8     7     9   ar
     9     7     5   ar
    10     9    11   ar
    11     6     5    1
    12     5     3   ar
    13    11     2   ar
    14    18    19    1
    15    18    22    1
    16     3     2   ar
    17     3     4    1
    18     2     1    1
    19     1    14    2
    20     1    12    1
    21    12    13    1
