@<TRIPOS>MOLECULE
?
 43 43 0 0 0
SMALL
GASTEIGER

@<TRIPOS>ATOM
      1 S           4.9050    3.4068    2.7365 S.3     1  LIG1       -0.0512
      2 S           5.2768    1.3937    2.9744 S.3     1  LIG1       -0.0512
      3 O           2.5992    6.8033    1.1156 O.3     1  LIG1       -0.4771
      4 H           2.3948    7.3558    1.7115 H       1  LIG1        0.2954
      5 O           3.6828    5.7777    2.7704 O.2     1  LIG1       -0.2451
      6 O           7.2769   -2.4866    2.9684 O.co2   1  LIG1       -0.2406
      7 O           5.6362   -1.0851    3.5066 O.co2   1  LIG1       -0.2406
      8 O           7.1759    8.2392    5.4233 O.3     2  HOH2       -0.4105
      9 H           7.5296    8.5089    6.1388 H       0  HOH0        0.2052
     10 H           7.4652    8.6671    4.7644 H       0  HOH0        0.2052
     11 N           7.5577    5.7181    5.1583 N.pl3   3  LIG3       -0.3269
     12 H           7.3620    6.5736    5.2274 H       3  LIG3        0.1510
     13 C           8.7350    5.3678    4.6386 C.2     3  LIG3       -0.0098
     14 H           9.3070    6.0374    4.2819 H       3  LIG3        0.0778
     15 C           9.1345    4.0506    4.6087 C.2     3  LIG3       -0.0580
     16 H           9.9725    3.8174    4.2273 H       3  LIG3        0.0594
     17 C           8.3075    3.0550    5.1408 C.3     3  LIG3        0.0370
     18 C           7.0758    3.4623    5.6470 C.2     3  LIG3       -0.0580
     19 H           6.4722    2.8172    5.9955 H       3  LIG3        0.0594
     20 C           6.7281    4.7933    5.6449 C.2     3  LIG3       -0.0098
     21 H           5.8857    5.0581    5.9955 H       3  LIG3        0.0778
     22 C           3.3035    5.8153    1.6115 C.2     1  LIG1        0.3379
     23 C           3.5802    4.7146    0.6609 C.ar    1  LIG1        0.0730
     24 C           4.2879    3.5650    1.0620 C.ar    1  LIG1        0.0329
     25 C           4.5011    2.5534    0.1278 C.ar    1  LIG1       -0.0467
     26 H           4.9821    1.7752    0.3846 H       1  LIG1        0.0629
     27 C           4.0232    2.6641   -1.1692 C.ar    1  LIG1       -0.0607
     28 H           4.1742    1.9606   -1.7888 H       1  LIG1        0.0618
     29 C           3.3290    3.7890   -1.5672 C.ar    1  LIG1       -0.0609
     30 H           3.0038    3.8630   -2.4570 H       1  LIG1        0.0618
     31 C           3.1126    4.8046   -0.6578 C.ar    1  LIG1       -0.0467
     32 H           2.6383    5.5807   -0.9310 H       1  LIG1        0.0626
     33 C           6.8908    1.0911    2.2549 C.ar    1  LIG1        0.0331
     34 C           7.4342   -0.2055    2.2776 C.ar    1  LIG1        0.0773
     35 C           8.6817   -0.4225    1.6899 C.ar    1  LIG1       -0.0465
     36 H           9.0527   -1.2967    1.6971 H       1  LIG1        0.0626
     37 C           9.3896    0.6075    1.0950 C.ar    1  LIG1       -0.0609
     38 H          10.2426    0.4435    0.7104 H       1  LIG1        0.0618
     39 C           8.8448    1.8703    1.0651 C.ar    1  LIG1       -0.0607
     40 H           9.3212    2.5775    0.6475 H       1  LIG1        0.0618
     41 C           7.6024    2.1198    1.6404 C.ar    1  LIG1       -0.0467
     42 H           7.2376    2.9970    1.6136 H       1  LIG1        0.0629
     43 C           6.7345   -1.3548    2.9519 C.2     1  LIG1        0.3876
@<TRIPOS>BOND
     1    30    29    1
     2    28    27    1
     3    29    27   ar
     4    29    31   ar
     5    27    25   ar
     6    32    31    1
     7    31    23   ar
     8    25    26    1
     9    25    24   ar
    10    40    39    1
    11    23    24   ar
    12    23    22    1
    13    38    37    1
    14    24     1    1
    15    39    37   ar
    16    39    41   ar
    17    37    35   ar
    18     3    22    1
    19     3     4    1
    20    22     5    2
    21    42    41    1
    22    41    33   ar
    23    35    36    1
    24    35    34   ar
    25    33    34   ar
    26    33     2    1
    27    34    43    1
    28     1     2    1
    29    43     6   ar
    30    43     7   ar
    31    16    15    1
    32    14    13    1
    33    15    13    2
    34    15    17    1
    35    13    11    1
    36    10     8    1
    37    17    18    1
    38    11    12    1
    39    11    20    1
    40     8     9    1
    41    20    18    2
    42    20    21    1
    43    18    19    1
