@<TRIPOS>MOLECULE
C7 H8 O3
 18 18 0 0 0
SMALL
GASTEIGER

@<TRIPOS>ATOM
      1 C           2.3610    1.9895   10.9758 C.ar    1  LIG1        0.1647
      2 C           2.3207    2.3973   12.3135 C.ar    1  LIG1        0.0252
      3 C           1.3968    3.3569   12.7097 C.ar    1  LIG1        0.1206
      4 C           0.4952    3.9056   11.8044 C.ar    1  LIG1       -0.0165
      5 C           0.5484    3.5012   10.4652 C.ar    1  LIG1       -0.0131
      6 C           1.4693    2.5677   10.0433 C.ar    1  LIG1        0.1587
      7 C           4.0551    0.3339   11.3766 C.3     1  LIG1        0.0790
      8 O           3.2123    1.0486   10.4593 O.3     1  LIG1       -0.4913
      9 O           1.3195    3.7884   14.0354 O.3     1  LIG1       -0.5066
     10 O           1.4802    2.1756    8.7106 O.3     1  LIG1       -0.5033
     11 H           3.0097    1.9623   12.9092 H       1  LIG1        0.0692
     12 H          -0.2505    4.4534   12.1604 H       1  LIG1        0.0655
     13 H          -0.0936    3.8740    9.8537 H       1  LIG1        0.0656
     14 H           2.1556    3.6170   14.4147 H       1  LIG1        0.2921
     15 H           2.3003    1.8896    8.5210 H       1  LIG1        0.2923
     16 H           4.6559    0.9617   11.8410 H       1  LIG1        0.0660
     17 H           4.5929   -0.3160   10.8356 H       1  LIG1        0.0660
     18 H           3.4809   -0.1443   12.0622 H       1  LIG1        0.0660
@<TRIPOS>BOND
     1    15    10    1
     2    10     6    1
     3    13     5    1
     4     6     5   ar
     5     6     1   ar
     6     8     1    1
     7     8     7    1
     8     5     4   ar
     9    17     7    1
    10     1     2   ar
    11     7    16    1
    12     7    18    1
    13     4    12    1
    14     4     3   ar
    15     2     3   ar
    16     2    11    1
    17     3     9    1
    18     9    14    1
