@<TRIPOS>MOLECULE
C35 H24 Cl2 N2
 63 70 0 0 0
SMALL
GASTEIGER

@<TRIPOS>ATOM
      1 CL         12.4010    9.2777   -1.2260 Cl      1  LIG1       -0.0835
      2 CL          4.1082    0.7519    2.7695 Cl      1  LIG1       -0.0835
      3 N          11.2831    7.3396    4.2007 N.ar    1  LIG1       -0.2510
      4 N           9.6508    2.0538    4.1798 N.ar    1  LIG1       -0.2510
      5 C          10.9398    5.6420    5.8553 C.3     1  LIG1        0.0063
      6 C          11.4350    6.0535    4.5000 C.ar    1  LIG1        0.0491
      7 C          12.0230    5.1196    3.5995 C.ar    1  LIG1       -0.0169
      8 C          12.2596    3.7029    4.0569 C.3     1  LIG1       -0.0171
      9 C          11.3960    3.3062    5.2554 C.3     1  LIG1        0.0063
     10 C           9.9393    3.1658    4.8267 C.ar    1  LIG1        0.0491
     11 C           8.9877    4.1857    5.1182 C.ar    1  LIG1       -0.0169
     12 C           9.4068    5.4421    5.8161 C.3     1  LIG1       -0.0171
     13 C          11.5558    4.3371    6.3520 C.3     1  LIG1       -0.0359
     14 C          11.6413    7.7700    2.9577 C.ar    1  LIG1        0.0720
     15 C          11.4304    9.1243    2.6349 C.ar    1  LIG1       -0.0343
     16 C          11.6790    9.5863    1.3750 C.ar    1  LIG1       -0.0413
     17 C          12.1562    8.6989    0.3947 C.ar    1  LIG1        0.0417
     18 C          12.4165    7.3841    0.6705 C.ar    1  LIG1       -0.0336
     19 C          12.1626    6.8826    1.9736 C.ar    1  LIG1        0.0097
     20 C          12.3804    5.5292    2.3408 C.ar    1  LIG1       -0.0038
     21 C           8.3546    1.8450    3.8177 C.ar    1  LIG1        0.0720
     22 C           8.0416    0.6332    3.1603 C.ar    1  LIG1       -0.0343
     23 C           6.7503    0.3304    2.8283 C.ar    1  LIG1       -0.0413
     24 C           5.7395    1.2257    3.1760 C.ar    1  LIG1        0.0417
     25 C           5.9804    2.4030    3.7798 C.ar    1  LIG1       -0.0336
     26 C           7.3195    2.7404    4.1262 C.ar    1  LIG1        0.0097
     27 C           7.6662    3.9651    4.7653 C.ar    1  LIG1       -0.0038
     28 C          12.9997    4.5844    1.3540 C.ar    1  LIG1       -0.0169
     29 C          12.1983    3.8217    0.5241 C.ar    1  LIG1       -0.0540
     30 C          12.7564    2.8957   -0.3359 C.ar    1  LIG1       -0.0612
     31 C          14.1237    2.7265   -0.3699 C.ar    1  LIG1       -0.0617
     32 C          14.9335    3.4813    0.4522 C.ar    1  LIG1       -0.0612
     33 C          14.3704    4.4063    1.3109 C.ar    1  LIG1       -0.0540
     34 C           6.6115    4.9693    5.0803 C.ar    1  LIG1       -0.0169
     35 C           6.2284    5.9071    4.1392 C.ar    1  LIG1       -0.0540
     36 C           5.1948    6.7866    4.4020 C.ar    1  LIG1       -0.0612
     37 C           4.5372    6.7322    5.6122 C.ar    1  LIG1       -0.0617
     38 C           4.9102    5.8013    6.5585 C.ar    1  LIG1       -0.0612
     39 C           5.9444    4.9237    6.2919 C.ar    1  LIG1       -0.0540
     40 H          11.1524    6.3681    6.5101 H       1  LIG1        0.0367
     41 H          13.2218    3.6080    4.3118 H       1  LIG1        0.0320
     42 H          12.0541    3.0856    3.2975 H       1  LIG1        0.0320
     43 H          11.7136    2.4228    5.6005 H       1  LIG1        0.0367
     44 H           9.0665    5.4115    6.7558 H       1  LIG1        0.0320
     45 H           8.9977    6.2207    5.3391 H       1  LIG1        0.0320
     46 H          11.0836    4.0314    7.1793 H       1  LIG1        0.0278
     47 H          12.5261    4.4736    6.5520 H       1  LIG1        0.0278
     48 H          11.0964    9.7535    3.3354 H       1  LIG1        0.0639
     49 H          11.5212   10.5479    1.1502 H       1  LIG1        0.0633
     50 H          12.7831    6.7826   -0.0392 H       1  LIG1        0.0639
     51 H           8.7728   -0.0099    2.9342 H       1  LIG1        0.0639
     52 H           6.5342   -0.5184    2.3447 H       1  LIG1        0.0633
     53 H           5.2299    3.0322    3.9824 H       1  LIG1        0.0639
     54 H          11.2054    3.9424    0.5476 H       1  LIG1        0.0624
     55 H          12.1696    2.3476   -0.9319 H       1  LIG1        0.0618
     56 H          14.5292    2.0568   -0.9920 H       1  LIG1        0.0618
     57 H          15.9254    3.3587    0.4287 H       1  LIG1        0.0618
     58 H          14.9603    4.9524    1.9069 H       1  LIG1        0.0624
     59 H           6.7031    5.9496    3.2596 H       1  LIG1        0.0624
     60 H           4.9235    7.4613    3.7158 H       1  LIG1        0.0618
     61 H           3.7893    7.3673    5.8044 H       1  LIG1        0.0618
     62 H           4.4346    5.7607    7.4368 H       1  LIG1        0.0618
     63 H           6.2134    4.2500    6.9793 H       1  LIG1        0.0624
@<TRIPOS>BOND
     1     1    17    1
     2    56    31    1
     3    55    30    1
     4    31    30   ar
     5    31    32   ar
     6    30    29   ar
     7    50    18    1
     8    17    18   ar
     9    17    16   ar
    10    57    32    1
    11    32    33   ar
    12    29    54    1
    13    29    28   ar
    14    18    19   ar
    15    49    16    1
    16    33    28   ar
    17    33    58    1
    18    28    20    1
    19    16    15   ar
    20    19    20   ar
    21    19    14   ar
    22    20     7   ar
    23    52    23    1
    24    15    14   ar
    25    15    48    1
    26     2    24    1
    27    23    22   ar
    28    23    24   ar
    29    51    22    1
    30    14     3   ar
    31    22    21   ar
    32    24    25   ar
    33    59    35    1
    34    42     8    1
    35     7     8    1
    36     7     6   ar
    37    60    36    1
    38    25    53    1
    39    25    26   ar
    40    21    26   ar
    41    21     4   ar
    42     8    41    1
    43     8     9    1
    44    26    27   ar
    45    35    36   ar
    46    35    34   ar
    47     4    10   ar
    48     3     6   ar
    49    36    37   ar
    50     6     5    1
    51    27    34    1
    52    27    11   ar
    53    10    11   ar
    54    10     9    1
    55    34    39   ar
    56    11    12    1
    57     9    43    1
    58     9    13    1
    59    45    12    1
    60    37    61    1
    61    37    38   ar
    62    12     5    1
    63    12    44    1
    64     5    13    1
    65     5    40    1
    66    39    38   ar
    67    39    63    1
    68    13    47    1
    69    13    46    1
    70    38    62    1
