@<TRIPOS>MOLECULE
?
 38 40 0 0 0
SMALL
GASTEIGER

@<TRIPOS>ATOM
      1 O           7.1431    2.2817   -0.5004 O.2     1  LIG1       -0.4620
      2 C           8.2985    2.4734    0.1965 C.ar    1  LIG1        0.0926
      3 H           8.8893    1.6473    0.3666 H       1  LIG1        0.1029
      4 C           8.4356    3.7494    0.5276 C.ar    1  LIG1       -0.0233
      5 H           9.2130    4.1307    0.9865 H       1  LIG1        0.0649
      6 C           7.3074    4.4405    0.0177 C.ar    1  LIG1       -0.0150
      7 H           7.1041    5.2853    0.0513 H       1  LIG1        0.0656
      8 C           6.5303    3.5065   -0.5962 C.ar    1  LIG1        0.1452
      9 C           5.2602    3.5813   -1.2802 C.2     1  LIG1        0.0647
     10 H           4.8272    4.5079   -1.2537 H       1  LIG1        0.0863
     11 N           4.7383    2.5886   -1.8724 N.2     1  LIG1       -0.2825
     12 C           3.4433    2.7774   -2.5258 C.3     1  LIG1        0.0731
     13 H           3.0795    3.6937   -2.3069 H       1  LIG1        0.0565
     14 C           3.6128    2.6383   -4.0391 C.3     1  LIG1       -0.0286
     15 C           2.2750    2.7260   -4.7590 C.3     1  LIG1       -0.0510
     16 C           1.3158    1.6631   -4.2384 C.3     1  LIG1       -0.0510
     17 C           1.1333    1.7796   -2.7318 C.3     1  LIG1       -0.0286
     18 C           2.4687    1.7219   -1.9894 C.3     1  LIG1        0.0731
     19 H           2.9072    0.8351   -2.1485 H       1  LIG1        0.0565
     20 N           2.2242    1.9430   -0.5681 N.2     1  LIG1       -0.2825
     21 C           2.6271    1.0521    0.2375 C.2     1  LIG1        0.0647
     22 H           3.1584    0.2608   -0.0699 H       1  LIG1        0.0863
     23 C           2.3756    1.0834    1.6647 C.ar    1  LIG1        0.1452
     24 C           2.7346    0.2128    2.6363 C.ar    1  LIG1       -0.0150
     25 H           3.2685   -0.5574    2.4903 H       1  LIG1        0.0656
     26 C           2.1522    0.6793    3.8437 C.ar    1  LIG1       -0.0233
     27 H           2.2080    0.3135    4.6947 H       1  LIG1        0.0649
     28 C           1.4856    1.7961    3.5305 C.ar    1  LIG1        0.0926
     29 H           0.9909    2.4127    4.0049 H       1  LIG1        0.1029
     30 O           1.6002    2.0832    2.1935 O.2     1  LIG1       -0.4620
     31 H           4.2358    3.3742   -4.3358 H       1  LIG1        0.0286
     32 H           1.8500    3.6738   -4.5844 H       1  LIG1        0.0266
     33 H           0.4249    1.7239   -4.6558 H       1  LIG1        0.0266
     34 H           0.6601    2.6665   -2.4825 H       1  LIG1        0.0286
     35 H           4.0485    1.7916   -4.2286 H       1  LIG1        0.0286
     36 H           2.4527    2.6267   -5.7340 H       1  LIG1        0.0266
     37 H           1.6897    0.7614   -4.4554 H       1  LIG1        0.0266
     38 H           0.5993    1.0610   -2.3800 H       1  LIG1        0.0286
@<TRIPOS>BOND
     1    36    15    1
     2    15    32    1
     3    15    16    1
     4    15    14    1
     5    33    16    1
     6    37    16    1
     7    31    14    1
     8    16    17    1
     9    35    14    1
    10    14    12    1
    11    17    34    1
    12    17    38    1
    13    17    18    1
    14    12    13    1
    15    12    18    1
    16    12    11    1
    17    19    18    1
    18    18    20    1
    19    11     9    2
    20     9    10    1
    21     9     8    1
    22     8     1   ar
    23     8     6   ar
    24    20    21    2
    25     1     2   ar
    26    22    21    1
    27     6     7    1
    28     6     4   ar
    29     2     3    1
    30     2     4   ar
    31    21    23    1
    32     4     5    1
    33    23    30   ar
    34    23    24   ar
    35    30    28   ar
    36    25    24    1
    37    24    26   ar
    38    28    26   ar
    39    28    29    1
    40    26    27    1
