@<TRIPOS>MOLECULE
?
 74 76 0 0 0
SMALL
GASTEIGER

@<TRIPOS>ATOM
      1 O          -0.3302   12.9603    2.6350 O.2     1  LIG1       -0.2832
      2 C          -0.3302   14.1748    2.6350 C.2     1  LIG1        0.2335
      3 C           0.5586   15.0853    1.8502 C.ar    1  LIG1        0.0333
      4 C           1.5616   14.7787    0.9491 C.ar    1  LIG1       -0.0491
      5 H           1.7936   13.8761    0.7694 H       1  LIG1        0.0625
      6 C           2.2208   15.8191    0.3139 C.ar    1  LIG1       -0.0456
      7 H           2.9184   15.6238   -0.3014 H       1  LIG1        0.0630
      8 C           1.8731   17.1535    0.5664 C.ar    1  LIG1        0.0259
      9 C           0.8672   17.4574    1.5022 C.ar    1  LIG1       -0.0379
     10 H           0.6391   18.3594    1.6938 H       1  LIG1        0.0636
     11 C           0.2184   16.4167    2.1359 C.ar    1  LIG1       -0.0051
     12 C           2.5460   18.1922   -0.1557 C.1     1  LIG1       -0.0609
     13 C           3.1308   18.9987   -0.8180 C.1     1  LIG1       -0.0573
     14 C           3.8455   19.9707   -1.5866 C.ar    1  LIG1        0.0704
     15 C           4.9416   19.5752   -2.3786 C.ar    1  LIG1        0.1372
     16 C           5.6767   20.5379   -3.0622 C.ar    1  LIG1        0.0002
     17 H           6.4288   20.2756   -3.5783 H       1  LIG1        0.0668
     18 C           5.3198   21.8852   -2.9971 C.ar    1  LIG1        0.0704
     19 C           4.1821   22.2695   -2.2588 C.ar    1  LIG1        0.1372
     20 C           3.4724   21.3180   -1.5515 C.ar    1  LIG1        0.0002
     21 H           2.7205   21.5839   -1.0340 H       1  LIG1        0.0668
     22 C           6.0882   22.9137   -3.6353 C.1     1  LIG1       -0.0573
     23 C           6.6538   23.8764   -4.0618 C.1     1  LIG1       -0.0609
     24 C           7.2835   25.0989   -4.4754 C.ar    1  LIG1        0.0253
     25 C           8.6367   25.3275   -4.2454 C.ar    1  LIG1       -0.0463
     26 H           9.1796   24.6367   -3.8829 H       1  LIG1        0.0630
     27 C           9.1912   26.5595   -4.5441 C.ar    1  LIG1       -0.0606
     28 H          10.1073   26.7214   -4.3520 H       1  LIG1        0.0618
     29 C           8.4233   27.5549   -5.1199 C.ar    1  LIG1       -0.0617
     30 H           8.8123   28.3964   -5.3322 H       1  LIG1        0.0618
     31 C           7.0913   27.3204   -5.3834 C.ar    1  LIG1       -0.0606
     32 H           6.5659   27.9967   -5.7959 H       1  LIG1        0.0618
     33 C           6.5119   26.1079   -5.0523 C.ar    1  LIG1       -0.0463
     34 H           5.5877   25.9615   -5.2183 H       1  LIG1        0.0630
     35 O           5.2155   18.2404   -2.3884 O.3     1  LIG1       -0.4907
     36 C           6.1776   17.7677   -3.3342 C.3     1  LIG1        0.0896
     37 H           7.0782   18.1050   -3.1030 H       1  LIG1        0.0696
     38 H           5.9473   18.0852   -4.2434 H       1  LIG1        0.0696
     39 C           6.1595   16.2595   -3.2898 C.3     1  LIG1       -0.0186
     40 H           5.2519   15.9377   -3.5214 H       1  LIG1        0.0298
     41 H           6.3620   15.9575   -2.3683 H       1  LIG1        0.0298
     42 C           7.1683   15.6436   -4.2508 C.3     1  LIG1       -0.0500
     43 H           6.9645   15.9476   -5.1709 H       1  LIG1        0.0266
     44 H           8.0749   15.9674   -4.0199 H       1  LIG1        0.0266
     45 C           7.1612   14.1216   -4.2150 C.3     1  LIG1       -0.0532
     46 H           7.2989   13.8265   -3.2800 H       1  LIG1        0.0265
     47 H           6.2695   13.8001   -4.5037 H       1  LIG1        0.0265
     48 C           8.2215   13.4717   -5.0937 C.3     1  LIG1       -0.0559
     49 H           9.1175   13.7505   -4.7799 H       1  LIG1        0.0263
     50 H           8.1115   13.7935   -6.0236 H       1  LIG1        0.0263
     51 C           8.1423   11.9506   -5.0788 C.3     1  LIG1       -0.0653
     52 H           8.7887   11.5832   -5.7190 H       1  LIG1        0.0230
     53 H           7.2371   11.6691   -5.3290 H       1  LIG1        0.0230
     54 H           8.3509   11.6229   -4.1791 H       1  LIG1        0.0230
     55 O           3.8905   23.5913   -2.3149 O.3     1  LIG1       -0.4907
     56 C           2.6619   24.0582   -1.7428 C.3     1  LIG1        0.0896
     57 H           2.7305   24.0915   -0.7557 H       1  LIG1        0.0696
     58 H           1.9165   23.4539   -1.9868 H       1  LIG1        0.0696
     59 C           2.4272   25.4448   -2.3066 C.3     1  LIG1       -0.0186
     60 H           2.2822   25.3701   -3.2832 H       1  LIG1        0.0298
     61 H           1.6009   25.8161   -1.9077 H       1  LIG1        0.0298
     62 C           3.5655   26.4098   -2.0536 C.3     1  LIG1       -0.0500
     63 H           4.4220   25.9549   -2.2503 H       1  LIG1        0.0266
     64 H           3.5683   26.6586   -1.0951 H       1  LIG1        0.0266
     65 C           3.4806   27.6785   -2.8893 C.3     1  LIG1       -0.0532
     66 H           3.4683   27.4284   -3.8471 H       1  LIG1        0.0265
     67 H           2.6267   28.1387   -2.6866 H       1  LIG1        0.0265
     68 C           4.6180   28.6369   -2.6495 C.3     1  LIG1       -0.0559
     69 H           5.4749   28.1585   -2.7857 H       1  LIG1        0.0263
     70 H           4.5877   28.9415   -1.7075 H       1  LIG1        0.0263
     71 C           4.5832   29.8501   -3.5572 C.3     1  LIG1       -0.0653
     72 H           5.2924   30.4745   -3.2959 H       1  LIG1        0.0230
     73 H           3.7132   30.2928   -3.4771 H       1  LIG1        0.0230
     74 H           4.7212   29.5693   -4.4848 H       1  LIG1        0.0230
@<TRIPOS>BOND
     1    50    48    1
     2    32    31    1
     3    52    51    1
     4    31    29   ar
     5    31    33   ar
     6    30    29    1
     7    53    51    1
     8    34    33    1
     9    43    42    1
    10    29    27   ar
    11    48    51    1
    12    48    49    1
    13    48    45    1
    14    51    54    1
    15    33    24   ar
    16    27    28    1
    17    27    25   ar
    18    47    45    1
    19    74    71    1
    20    24    25   ar
    21    24    23    1
    22    42    45    1
    23    42    44    1
    24    42    39    1
    25    25    26    1
    26    38    36    1
    27    45    46    1
    28    23    22    3
    29    66    65    1
    30    22    18    1
    31    17    16    1
    32    71    73    1
    33    71    72    1
    34    71    68    1
    35    40    39    1
    36    36    39    1
    37    36    37    1
    38    36    35    1
    39    39    41    1
    40    60    59    1
    41    16    18   ar
    42    16    15   ar
    43    18    19   ar
    44    65    67    1
    45    65    68    1
    46    65    62    1
    47    69    68    1
    48    68    70    1
    49    35    15    1
    50    15    14   ar
    51    55    19    1
    52    55    56    1
    53    59    62    1
    54    59    61    1
    55    59    56    1
    56    19    20   ar
    57    63    62    1
    58    62    64    1
    59    58    56    1
    60    56    57    1
    61    14    20   ar
    62    14    13    1
    63    20    21    1
    64    13    12    3
    65     7     6    1
    66    12     8    1
    67     6     8   ar
    68     6     4   ar
    69     8     9   ar
    70     5     4    1
    71     4     3   ar
    72     9    10    1
    73     9    11   ar
    74     3    11   ar
    75     3     2    1
    76     2     1    2
