@<TRIPOS>MOLECULE
?
 74 74 0 0 0
SMALL
GASTEIGER

@<TRIPOS>ATOM
      1 S           2.4169    5.7180    7.5524 S.3     1  LIG1        0.1397
      2 S          11.1887    5.4702    5.6351 S.3     2  LIG2        0.1397
      3 O           1.5831    6.3584    8.5732 O.3     1  LIG1       -0.0427
      4 O           2.3197    6.4332    6.2782 O.2     1  LIG1       -0.1397
      5 O           2.2026    4.2983    7.4292 O.2     1  LIG1       -0.1397
      6 O          11.4427    6.3324    4.4837 O.2     2  LIG2       -0.1397
      7 O          10.9865    6.2741    6.8441 O.3     2  LIG2       -0.0427
      8 O          12.1712    4.4262    5.8084 O.2     2  LIG2       -0.1397
      9 N           1.4606    9.2548    8.6391 N.pl3   3  LIG3       -0.2917
     10 H           1.4372    9.6891    9.4037 H       3  LIG3        0.2546
     11 H           1.4318    8.3757    8.6307 H       3  LIG3        0.2546
     12 N           1.5788    9.2407    6.3461 N.pl3   3  LIG3       -0.2917
     13 H           1.6332    9.6646    5.5769 H       3  LIG3        0.2546
     14 H           1.5461    8.3618    6.3631 H       3  LIG3        0.2546
     15 N           1.5907   11.2600    7.4829 N.pl3   3  LIG3       -0.2706
     16 N          11.8549    9.1964    4.4666 N.pl3   4  LIG4       -0.2917
     17 H          11.8897    9.6454    3.7106 H       4  LIG4        0.2546
     18 H          11.7590    8.3213    4.4553 H       4  LIG4        0.2546
     19 N          11.8951    9.1300    6.7656 N.pl3   4  LIG4       -0.2917
     20 H          11.9550    9.5346    7.5444 H       4  LIG4        0.2546
     21 H          11.7971    8.2564    6.7299 H       4  LIG4        0.2546
     22 N          12.0982   11.1647    5.6711 N.pl3   4  LIG4       -0.2706
     23 C           4.0977    5.9172    8.0830 C.ar    1  LIG1        0.1202
     24 C           5.1092    5.2078    7.3777 C.ar    1  LIG1       -0.0337
     25 H           4.8833    4.6549    6.6380 H       1  LIG1        0.0637
     26 C           6.4239    5.3292    7.7768 C.ar    1  LIG1       -0.0522
     27 H           7.0990    4.8594    7.3039 H       1  LIG1        0.0624
     28 C           6.7849    6.1419    8.8793 C.ar    1  LIG1       -0.0178
     29 C           8.1464    6.2825    9.3107 C.ar    1  LIG1       -0.0540
     30 H           8.8356    5.8043    8.8651 H       1  LIG1        0.0624
     31 C           8.4524    7.0900   10.3455 C.ar    1  LIG1       -0.0612
     32 H           9.3582    7.1645   10.6284 H       1  LIG1        0.0618
     33 C           7.4572    7.8239   11.0134 C.ar    1  LIG1       -0.0612
     34 H           7.6978    8.3980   11.7319 H       1  LIG1        0.0618
     35 C           6.1381    7.7152   10.6315 C.ar    1  LIG1       -0.0540
     36 H           5.4712    8.2052   11.0943 H       1  LIG1        0.0624
     37 C           5.7799    6.8759    9.5523 C.ar    1  LIG1       -0.0160
     38 C           4.4249    6.7331    9.1299 C.ar    1  LIG1       -0.0266
     39 H           3.7400    7.2114    9.5826 H       1  LIG1        0.0643
     40 C           9.6402    4.6581    5.3061 C.ar    2  LIG2        0.1202
     41 C           9.3577    3.4299    5.9539 C.ar    2  LIG2       -0.0337
     42 H           9.9952    3.0465    6.5440 H       2  LIG2        0.0637
     43 C           8.1649    2.7951    5.7285 C.ar    2  LIG2       -0.0522
     44 H           7.9863    1.9674    6.1610 H       2  LIG2        0.0624
     45 C           7.1948    3.3437    4.8696 C.ar    2  LIG2       -0.0178
     46 C           5.9263    2.7248    4.6240 C.ar    2  LIG2       -0.0540
     47 H           5.7216    1.9014    5.0515 H       2  LIG2        0.0624
     48 C           5.0139    3.2819    3.8025 C.ar    2  LIG2       -0.0612
     49 H           4.1864    2.8388    3.6479 H       2  LIG2        0.0618
     50 C           5.2682    4.4941    3.1811 C.ar    2  LIG2       -0.0612
     51 H           4.6111    4.8797    2.6111 H       2  LIG2        0.0618
     52 C           6.4718    5.1439    3.3852 C.ar    2  LIG2       -0.0540
     53 H           6.6362    5.9779    2.9608 H       2  LIG2        0.0624
     54 C           7.4621    4.5761    4.2229 C.ar    2  LIG2       -0.0160
     55 C           8.7207    5.2152    4.4593 C.ar    2  LIG2       -0.0266
     56 H           8.9227    6.0354    4.0238 H       2  LIG2        0.0643
     57 C           1.5439    9.9319    7.4878 C.cat   3  LIG3        0.3429
     58 C           1.7437   11.9792    6.2156 C.3     3  LIG3        0.0557
     59 H           2.5151   11.6224    5.7285 H       3  LIG3        0.0619
     60 H           1.8836   12.9326    6.3965 H       3  LIG3        0.0619
     61 H           0.9364   11.8642    5.6750 H       3  LIG3        0.0619
     62 C           1.3360   12.0016    8.7257 C.3     3  LIG3        0.0557
     63 H           0.4791   11.7204    9.1036 H       3  LIG3        0.0619
     64 H           1.3066   12.9624    8.5327 H       3  LIG3        0.0619
     65 H           2.0524   11.8184    9.3683 H       3  LIG3        0.0619
     66 C          11.9523    9.8435    5.6345 C.cat   4  LIG4        0.3429
     67 C          12.2103   11.9292    4.4260 C.3     4  LIG4        0.0557
     68 H          13.0057   11.6373    3.9329 H       4  LIG4        0.0619
     69 H          12.2871   12.8836    4.6342 H       4  LIG4        0.0619
     70 H          11.4106   11.7790    3.8773 H       4  LIG4        0.0619
     71 C          12.3541   11.8365    6.9482 C.3     4  LIG4        0.0557
     72 H          11.5848   11.7087    7.5434 H       4  LIG4        0.0619
     73 H          12.4885   12.7941    6.7916 H       4  LIG4        0.0619
     74 H          13.1581   11.4552    7.3625 H       4  LIG4        0.0619
@<TRIPOS>BOND
     1    51    50    1
     2    53    52    1
     3    50    52   ar
     4    50    48   ar
     5    52    54   ar
     6    49    48    1
     7    17    16    1
     8    48    46   ar
     9    70    67    1
    10    68    67    1
    11    56    55    1
    12    54    55   ar
    13    54    45   ar
    14    67    69    1
    15    67    22    1
    16    18    16    1
    17    55    40   ar
    18    16    66    2
    19     6     2    2
    20    46    45   ar
    21    46    47    1
    22    45    43   ar
    23    40     2    1
    24    40    41   ar
    25    13    12    1
    26    66    22    1
    27    66    19    1
    28     2     8    2
    29     2     7    1
    30    22    71    1
    31    61    58    1
    32    43    41   ar
    33    43    44    1
    34    59    58    1
    35    41    42    1
    36    58    60    1
    37    58    15    1
    38     4     1    2
    39    12    14    1
    40    12    57    2
    41    25    24    1
    42    21    19    1
    43    19    20    1
    44    73    71    1
    45    71    74    1
    46    71    72    1
    47    27    26    1
    48    24    26   ar
    49    24    23   ar
    50     5     1    2
    51    15    57    1
    52    15    62    1
    53    57     9    1
    54     1    23    1
    55     1     3    1
    56    26    28   ar
    57    23    38   ar
    58    64    62    1
    59    11     9    1
    60     9    10    1
    61    62    63    1
    62    62    65    1
    63    30    29    1
    64    28    29   ar
    65    28    37   ar
    66    38    37   ar
    67    38    39    1
    68    29    31   ar
    69    37    35   ar
    70    31    32    1
    71    31    33   ar
    72    35    33   ar
    73    35    36    1
    74    33    34    1
