@<TRIPOS>MOLECULE
?
 92 92 0 0 0
SMALL
GASTEIGER

@<TRIPOS>ATOM
      1 S           6.3366    2.4585    7.0574 S.3     1  LIG1        0.1110
      2 S           5.8263   -4.1607   -0.1655 S.3     2  LIG2        0.1110
      3 O           6.9808    3.3722    6.1264 O.2     1  LIG1       -0.1450
      4 O           4.8882    2.4514    6.9253 O.2     1  LIG1       -0.1450
      5 O           6.7534    2.6731    8.4311 O.3     1  LIG1       -0.0476
      6 O           7.2689   -4.2433   -0.0291 O.2     2  LIG2       -0.1450
      7 O           5.1294   -5.0770    0.7112 O.3     2  LIG2       -0.0476
      8 O           5.4116   -4.2624   -1.5506 O.2     2  LIG2       -0.1450
      9 O           7.2787   -1.1342    1.9135 O.2     2  LIG2       -0.2967
     10 O           8.8883   -0.2482    8.3319 O.2     1  LIG1       -0.2967
     11 N           6.1947    3.7469    3.3925 N.pl3   3  LIG3       -0.2919
     12 H           6.7163    4.0247    2.7547 H       3  LIG3        0.2545
     13 H           6.5266    3.5564    4.1742 H       3  LIG3        0.2545
     14 N           4.1319    3.1876    4.1908 N.pl3   3  LIG3       -0.2790
     15 H           4.5229    3.0880    4.9615 H       3  LIG3        0.2577
     16 N           4.3921    3.8954    2.0020 N.pl3   3  LIG3       -0.2919
     17 H           4.9124    4.1750    1.3642 H       3  LIG3        0.2545
     18 H           3.5379    3.8080    1.8609 H       3  LIG3        0.2545
     19 N           8.0123   -4.9370    2.7049 N.pl3   4  LIG4       -0.2790
     20 H           7.6112   -4.7587    1.9536 H       4  LIG4        0.2577
     21 N           5.9462   -5.4752    3.4907 N.pl3   4  LIG4       -0.2919
     22 H           5.4260   -5.7583    4.1286 H       4  LIG4        0.2545
     23 H           5.6093   -5.2585    2.7187 H       4  LIG4        0.2545
     24 N           7.7609   -5.7077    4.8619 N.pl3   4  LIG4       -0.2919
     25 H           7.2420   -5.9890    5.4997 H       4  LIG4        0.2545
     26 H           8.6184   -5.6430    4.9947 H       4  LIG4        0.2545
     27 C           4.8912    3.6105    3.1739 C.cat   3  LIG3        0.3410
     28 C           2.7021    2.8783    4.1230 C.3     3  LIG3        0.0617
     29 H           2.2977    3.0496    4.9988 H       3  LIG3        0.0652
     30 H           2.2760    3.4777    3.4755 H       3  LIG3        0.0652
     31 C           2.4323    1.4925    3.7384 C.3     3  LIG3       -0.0343
     32 H           2.8382    1.3124    2.8764 H       3  LIG3        0.0260
     33 H           1.4745    1.3544    3.6803 H       3  LIG3        0.0260
     34 H           2.8066    0.8930    4.4039 H       3  LIG3        0.0260
     35 C           5.3328   -2.5690    0.4109 C.3     2  LIG2        0.1081
     36 H           4.3662   -2.4938    0.2698 H       2  LIG2        0.0536
     37 H           5.4817   -2.5497    1.3794 H       2  LIG2        0.0536
     38 C           5.9745   -1.3247   -0.1716 C.3     2  LIG2        0.0561
     39 C           6.8309   -0.5977    0.8966 C.2     2  LIG2        0.1419
     40 C           7.0592    0.8021    0.4635 C.3     2  LIG2        0.0098
     41 H           8.0065    0.9769    0.2836 H       2  LIG2        0.0345
     42 H           6.7267    1.4453    1.1235 H       2  LIG2        0.0345
     43 C           6.2234    0.8196   -0.8191 C.3     2  LIG2       -0.0282
     44 H           5.9433    1.7249   -1.1096 H       2  LIG2        0.0310
     45 C           7.0686    0.0734   -1.8318 C.3     2  LIG2       -0.0484
     46 H           7.9999    0.3792   -1.8111 H       2  LIG2        0.0268
     47 H           6.7148    0.1835   -2.7381 H       2  LIG2        0.0268
     48 C           6.9521   -1.3666   -1.3670 C.3     2  LIG2       -0.0383
     49 H           7.8256   -1.7144   -1.0903 H       2  LIG2        0.0275
     50 H           6.5988   -1.9346   -2.0837 H       2  LIG2        0.0275
     51 C           5.0841   -0.1084   -0.4967 C.3     2  LIG2       -0.0178
     52 C           4.1741    0.3041    0.6281 C.3     2  LIG2       -0.0586
     53 H           3.7426    1.1429    0.4040 H       2  LIG2        0.0235
     54 H           4.6933    0.4142    1.4403 H       2  LIG2        0.0235
     55 H           3.4998   -0.3792    0.7665 H       2  LIG2        0.0235
     56 C           4.2091   -0.3408   -1.7295 C.3     2  LIG2       -0.0586
     57 H           3.8580    0.5086   -2.0408 H       2  LIG2        0.0235
     58 H           3.4742   -0.9297   -1.4970 H       2  LIG2        0.0235
     59 H           4.7408   -0.7480   -2.4309 H       2  LIG2        0.0235
     60 C           7.2495   -5.3791    3.6955 C.cat   4  LIG4        0.3410
     61 C           9.4286   -4.7238    2.7450 C.3     4  LIG4        0.0617
     62 H           9.7848   -4.7867    1.8332 H       4  LIG4        0.0652
     63 H           9.8412   -5.4368    3.2763 H       4  LIG4        0.0652
     64 C           9.8125   -3.4201    3.3164 C.3     4  LIG4       -0.0343
     65 H           9.3192   -2.7140    2.8709 H       4  LIG4        0.0260
     66 H          10.7634   -3.2785    3.1919 H       4  LIG4        0.0260
     67 H           9.6065   -3.4096    4.2642 H       4  LIG4        0.0260
     68 C           6.9119    0.8651    6.5678 C.3     1  LIG1        0.1081
     69 H           6.5361    0.6798    5.6823 H       1  LIG1        0.0536
     70 H           7.8837    0.9280    6.4571 H       1  LIG1        0.0536
     71 C           6.6334   -0.3443    7.4422 C.3     1  LIG1        0.0561
     72 C           7.8714   -0.8913    8.1229 C.2     1  LIG1        0.1419
     73 C           7.5915   -2.3243    8.4910 C.3     1  LIG1        0.0098
     74 H           7.6573   -2.4641    9.4581 H       1  LIG1        0.0345
     75 H           8.2044   -2.9377    8.0344 H       1  LIG1        0.0345
     76 C           6.1681   -2.5008    8.0012 C.3     1  LIG1       -0.0282
     77 H           5.8964   -3.4428    7.8573 H       1  LIG1        0.0310
     78 C           5.2868   -1.7371    8.9503 C.3     1  LIG1       -0.0484
     79 H           5.5034   -1.9468    9.8828 H       1  LIG1        0.0268
     80 H           4.3403   -1.9294    8.7884 H       1  LIG1        0.0268
     81 C           5.6285   -0.2394    8.6099 C.3     1  LIG1       -0.0383
     82 H           4.8247    0.2499    8.3388 H       1  LIG1        0.0275
     83 H           6.0319    0.2115    9.3806 H       1  LIG1        0.0275
     84 C           6.1542   -1.6200    6.7214 C.3     1  LIG1       -0.0178
     85 C           7.1484   -2.0552    5.6021 C.3     1  LIG1       -0.0586
     86 H           6.8984   -2.9325    5.2714 H       1  LIG1        0.0235
     87 H           8.0473   -2.0901    5.9646 H       1  LIG1        0.0235
     88 H           7.1172   -1.4138    4.8757 H       1  LIG1        0.0235
     89 C           4.7793   -1.4697    6.0836 C.3     1  LIG1       -0.0586
     90 H           4.1423   -1.1779    6.7546 H       1  LIG1        0.0235
     91 H           4.4957   -2.3226    5.7197 H       1  LIG1        0.0235
     92 H           4.8231   -0.8126    5.3724 H       1  LIG1        0.0235
@<TRIPOS>BOND
     1    47    45    1
     2    59    56    1
     3    50    48    1
     4    57    56    1
     5    45    46    1
     6    45    48    1
     7    45    43    1
     8    56    58    1
     9    56    51    1
    10     8     2    2
    11    48    49    1
    12    48    38    1
    13    44    43    1
    14    43    51    1
    15    43    40    1
    16    51    38    1
    17    51    52    1
    18    38    35    1
    19    38    39    1
    20     2     6    2
    21     2    35    1
    22     2     7    1
    23    36    35    1
    24    41    40    1
    25    53    52    1
    26    35    37    1
    27    40    39    1
    28    40    42    1
    29    52    55    1
    30    52    54    1
    31    39     9    2
    32    17    16    1
    33    62    61    1
    34    18    16    1
    35    20    19    1
    36    16    27    2
    37    19    61    1
    38    19    60    1
    39    23    21    1
    40    61    63    1
    41    61    64    1
    42    12    11    1
    43    65    64    1
    44    32    31    1
    45    27    11    1
    46    27    14    1
    47    66    64    1
    48    64    67    1
    49    11    13    1
    50    30    28    1
    51    21    60    2
    52    21    22    1
    53    33    31    1
    54    60    24    1
    55    31    28    1
    56    31    34    1
    57    28    14    1
    58    28    29    1
    59    14    15    1
    60    24    26    1
    61    24    25    1
    62    88    85    1
    63    86    85    1
    64    92    89    1
    65    85    87    1
    66    85    84    1
    67    69    68    1
    68    91    89    1
    69    89    84    1
    70    89    90    1
    71     3     1    2
    72    70    68    1
    73    68     1    1
    74    68    71    1
    75    84    71    1
    76    84    76    1
    77     4     1    2
    78     1     5    1
    79    71    72    1
    80    71    81    1
    81    77    76    1
    82    76    73    1
    83    76    78    1
    84    75    73    1
    85    72    10    2
    86    72    73    1
    87    82    81    1
    88    73    74    1
    89    81    78    1
    90    81    83    1
    91    80    78    1
    92    78    79    1
