@<TRIPOS>MOLECULE
?
 15 14 0 0 0
SMALL
GASTEIGER

@<TRIPOS>ATOM
      1 CL          5.6699    1.5544    0.7918 Cl      1  LIG1        0.0000
      2 N           4.9790    4.5410    1.4618 N.pl3   2  LIG2       -0.4113
      3 C           3.5157    4.5182    1.5295 C.ar    2  LIG2        0.1417
      4 C           2.7861    5.6210    1.1155 C.ar    2  LIG2        0.0041
      5 C           1.3998    5.5970    1.2374 C.ar    2  LIG2       -0.0480
      6 C           0.7400    4.4818    1.7618 C.ar    2  LIG2       -0.0175
      7 C           1.5023    3.3788    2.1580 C.ar    2  LIG2       -0.0480
      8 C           2.8903    3.3936    2.0496 C.ar    2  LIG2        0.0041
      9 H           5.3310    3.8278    1.0539 H       2  LIG2        0.3712
     10 H           5.3914    4.5089    2.3201 H       2  LIG2        0.3712
     11 H           5.2953    5.2142    1.0759 H       2  LIG2        0.3712
     12 H           3.2041    6.3897    0.7678 H       2  LIG2        0.0681
     13 H           0.9288    6.3535    0.9376 H       2  LIG2        0.0626
     14 H           1.0992    2.6041    2.5302 H       2  LIG2        0.0626
     15 H           3.3854    2.6282    2.3238 H       2  LIG2        0.0681
@<TRIPOS>BOND
     1    12     4    1
     2    13     5    1
     3     9     2    1
     4    11     2    1
     5     4     5   ar
     6     4     3   ar
     7     5     6   ar
     8     2     3    1
     9     2    10    1
    10     3     8   ar
    11     6     7   ar
    12     8     7   ar
    13     8    15    1
    14     7    14    1
