@<TRIPOS>MOLECULE
?
 63 65 0 0 0
SMALL
GASTEIGER

@<TRIPOS>ATOM
      1 O           6.2695    2.0063   26.8949 O.2     1  LIG1       -0.2734
      2 C           5.3106    1.9877   26.1364 C.2     1  LIG1        0.2397
      3 N           5.3898    2.4445   24.8584 N.am    1  LIG1       -0.2527
      4 C           4.3281    2.3501   23.9039 C.3     1  LIG1        0.2498
      5 O           4.7548    1.4299   22.8655 O.3     1  LIG1       -0.4336
      6 C           4.7497    1.8800   21.5825 C.2     1  LIG1        0.3060
      7 O           4.5538    3.0239   21.2994 O.2     1  LIG1       -0.2511
      8 C           4.9940    0.7679   20.6277 C.3     1  LIG1        0.0333
      9 C           3.0262    1.7378   24.3870 C.2     1  LIG1        0.2767
     10 O           2.0904    1.7009   23.6007 O.2     1  LIG1       -0.2696
     11 N           3.0099    1.1690   25.6092 N.am    1  LIG1       -0.2809
     12 C           3.9677    1.5284   26.6538 C.3     1  LIG1        0.1053
     13 C           3.3502    2.5970   27.6018 C.3     1  LIG1       -0.0195
     14 C           3.1320    3.9296   26.8940 C.3     1  LIG1       -0.0605
     15 C           4.1464    2.7581   28.8937 C.3     1  LIG1       -0.0605
     16 C           1.7972    0.4307   26.0151 C.3     1  LIG1        0.0407
     17 C           2.1131   -0.7659   26.8781 C.ar    1  LIG1       -0.0299
     18 C           1.7041   -0.8113   28.2045 C.ar    1  LIG1       -0.0536
     19 C           1.8762   -1.9530   28.9796 C.ar    1  LIG1       -0.0196
     20 C           2.4788   -3.0645   28.4274 C.ar    1  LIG1        0.1201
     21 O           2.6576   -4.2582   29.0708 O.3     1  LIG1       -0.4951
     22 C           2.1131   -4.3668   30.3907 C.3     1  LIG1        0.0788
     23 C           2.9532   -3.0136   27.1122 C.ar    1  LIG1       -0.0196
     24 C           2.7625   -1.8826   26.3498 C.ar    1  LIG1       -0.0536
     25 C           6.6363    3.0988   24.3956 C.3     1  LIG1        0.0435
     26 C           6.6066    4.5906   24.6051 C.ar    1  LIG1       -0.0298
     27 C           6.2520    5.4539   23.5759 C.ar    1  LIG1       -0.0536
     28 C           6.2148    6.8393   23.7610 C.ar    1  LIG1       -0.0196
     29 C           6.5440    7.3625   24.9983 C.ar    1  LIG1        0.1201
     30 O           6.5529    8.6997   25.2928 O.3     1  LIG1       -0.4951
     31 C           6.2356    9.6060   24.2456 C.3     1  LIG1        0.0788
     32 C           6.9060    6.5176   26.0414 C.ar    1  LIG1       -0.0196
     33 C           6.9328    5.1502   25.8480 C.ar    1  LIG1       -0.0536
     34 H           4.1442    3.3053   23.6152 H       1  LIG1        0.1057
     35 H           4.9925    1.0600   19.6926 H       1  LIG1        0.0342
     36 H           5.8863    0.3331   20.8467 H       1  LIG1        0.0342
     37 H           4.2805    0.0487   20.7581 H       1  LIG1        0.0342
     38 H           4.1643    0.6911   27.1777 H       1  LIG1        0.0599
     39 H           2.4467    2.2486   27.8743 H       1  LIG1        0.0318
     40 H           2.7514    4.5978   27.5348 H       1  LIG1        0.0233
     41 H           4.0362    4.2809   26.5785 H       1  LIG1        0.0233
     42 H           2.5391    3.8169   26.1181 H       1  LIG1        0.0233
     43 H           3.7137    3.4362   29.4946 H       1  LIG1        0.0233
     44 H           4.1725    1.8711   29.4031 H       1  LIG1        0.0233
     45 H           5.0841    3.0317   28.7036 H       1  LIG1        0.0233
     46 H           1.1932    1.0470   26.5165 H       1  LIG1        0.0514
     47 H           1.3243    0.1071   25.1884 H       1  LIG1        0.0514
     48 H           1.2580    0.0065   28.5856 H       1  LIG1        0.0622
     49 H           1.5664   -1.9761   29.9256 H       1  LIG1        0.0654
     50 H           2.3246   -5.2641   30.7874 H       1  LIG1        0.0660
     51 H           2.5741   -3.6644   31.0029 H       1  LIG1        0.0660
     52 H           1.1470   -4.1955   30.4126 H       1  LIG1        0.0660
     53 H           3.4485   -3.8007   26.7409 H       1  LIG1        0.0654
     54 H           3.1007   -1.8593   25.3920 H       1  LIG1        0.0622
     55 H           7.4147    2.7137   24.9109 H       1  LIG1        0.0515
     56 H           6.7592    2.9019   23.4263 H       1  LIG1        0.0515
     57 H           6.0114    5.0672   22.6825 H       1  LIG1        0.0622
     58 H           5.9429    7.4500   23.0013 H       1  LIG1        0.0654
     59 H           6.2721   10.5542   24.5833 H       1  LIG1        0.0660
     60 H           6.9060    9.5104   23.5001 H       1  LIG1        0.0660
     61 H           5.3225    9.4217   23.8897 H       1  LIG1        0.0660
     62 H           7.1391    6.9027   26.9504 H       1  LIG1        0.0654
     63 H           7.1890    4.5373   26.6110 H       1  LIG1        0.0622
@<TRIPOS>BOND
     1    35     8    1
     2     8    37    1
     3     8    36    1
     4     8     6    1
     5     7     6    2
     6     6     5    1
     7    57    27    1
     8     5     4    1
     9    58    28    1
    10    56    25    1
    11    60    31    1
    12    27    28   ar
    13    27    26   ar
    14    10     9    2
    15    34     4    1
    16    28    29   ar
    17    61    31    1
    18     4     9    1
    19     4     3    1
    20    31    59    1
    21    31    30    1
    22     9    11   am
    23    25    26    1
    24    25     3    1
    25    25    55    1
    26    26    33   ar
    27     3     2   am
    28    29    30    1
    29    29    32   ar
    30    47    16    1
    31    54    24    1
    32    11    16    1
    33    11    12    1
    34    33    32   ar
    35    33    63    1
    36    16    46    1
    37    16    17    1
    38    32    62    1
    39    42    14    1
    40     2    12    1
    41     2     1    2
    42    24    17   ar
    43    24    23   ar
    44    41    14    1
    45    12    38    1
    46    12    13    1
    47    53    23    1
    48    17    18   ar
    49    14    40    1
    50    14    13    1
    51    23    20   ar
    52    13    39    1
    53    13    15    1
    54    18    48    1
    55    18    19   ar
    56    20    19   ar
    57    20    21    1
    58    45    15    1
    59    15    44    1
    60    15    43    1
    61    19    49    1
    62    21    22    1
    63    22    52    1
    64    22    50    1
    65    22    51    1
