@<TRIPOS>MOLECULE
N-[(Benzylthio)thioxomethyl] Alanine
 29 29 0 0 0
SMALL
GASTEIGER

@<TRIPOS>ATOM
      1 S          11.2290    4.6569   -0.4750 S.2     1  LIG1       -0.0281
      2 S          12.2208    3.2089    1.9849 S.3     1  LIG1       -0.0981
      3 O           7.5562    4.2444   -1.1888 O.3     1  LIG1       -0.4793
      4 H           7.1339    4.9355   -1.0609 H       1  LIG1        0.2951
      5 OXT         8.0023    4.4691    0.9862 O.2     1  LIG1       -0.2489
      6 N          10.0519    2.6283    0.7427 N.am    1  LIG1       -0.3205
      7 H          10.0346    2.0520    1.3809 H       1  LIG1        0.1478
      8 C           8.1442    3.8959   -0.1036 C.2     1  LIG1        0.3249
      9 CA          8.9627    2.6320   -0.2198 C.3     1  LIG1        0.1161
     10 HA          9.3397    2.5821   -1.1233 H       1  LIG1        0.0611
     11 CB          8.0544    1.4320   -0.0025 C.3     1  LIG1       -0.0362
     12 HB1         8.5647    0.6233   -0.0935 H       1  LIG1        0.0253
     13 HB2         7.3506    1.4417   -0.6551 H       1  LIG1        0.0253
     14 HB3         7.6750    1.4732    0.8782 H       1  LIG1        0.0253
     15 C          11.0786    3.4803    0.6795 C.2     0  ACE0        0.1075
     16 C          13.5103    4.4411    1.6790 C.3     1  LIG1        0.0251
     17 H          13.8992    4.3143    0.7991 H       1  LIG1        0.0429
     18 H          13.1401    5.3376    1.7278 H       1  LIG1        0.0429
     19 C          14.5531    4.2449    2.7467 C.ar    1  LIG1       -0.0372
     20 C          15.4459    3.2130    2.6431 C.ar    1  LIG1       -0.0578
     21 H          15.4121    2.6450    1.9072 H       1  LIG1        0.0621
     22 C          16.3975    3.0070    3.6240 C.ar    1  LIG1       -0.0615
     23 H          17.0019    2.3035    3.5491 H       1  LIG1        0.0618
     24 C          16.4486    3.8449    4.7077 C.ar    1  LIG1       -0.0617
     25 H          17.0868    3.7073    5.3704 H       1  LIG1        0.0618
     26 C          15.5684    4.8747    4.8163 C.ar    1  LIG1       -0.0615
     27 H          15.6097    5.4438    5.5506 H       1  LIG1        0.0618
     28 C          14.6147    5.0796    3.8396 C.ar    1  LIG1       -0.0578
     29 H          14.0119    5.7842    3.9204 H       1  LIG1        0.0621
@<TRIPOS>BOND
     1     3     4    1
     2     3     8    1
     3    10     9    1
     4    13    11    1
     5     1    15    2
     6     9     8    1
     7     9    11    1
     8     9     6    1
     9     8     5    2
    10    12    11    1
    11    11    14    1
    12    15     6    1
    13    15     2    1
    14     6     7    1
    15    17    16    1
    16    16    18    1
    17    16     2    1
    18    16    19    1
    19    21    20    1
    20    20    19   ar
    21    20    22   ar
    22    19    28   ar
    23    23    22    1
    24    22    24   ar
    25    28    29    1
    26    28    26   ar
    27    24    26   ar
    28    24    25    1
    29    26    27    1
