@<TRIPOS>MOLECULE
racemic 2,6-di-O-benzoyl-4-O-methyl-myo-inositol-1,3,5-orthoformate
 100 108 0 0 0
SMALL
GASTEIGER

@<TRIPOS>ATOM
      1 C           8.9064   -2.6060   13.0429 C.3     1  LIG1        0.1425
      2 H           8.0713   -2.7325   13.5380 H       1  LIG1        0.0674
      3 C           8.6082   -2.3781   11.5746 C.3     1  LIG1        0.1617
      4 H           8.2049   -3.1837   11.1864 H       1  LIG1        0.0789
      5 C           9.9074   -2.0571   10.8698 C.3     1  LIG1        0.1319
      6 H           9.7280   -1.8274    9.9343 H       1  LIG1        0.0663
      7 C          10.8385   -3.2676   10.9362 C.3     1  LIG1        0.1179
      8 H          11.6917   -3.0352   10.5154 H       1  LIG1        0.0650
      9 C          11.0814   -3.5748   12.4071 C.3     1  LIG1        0.1319
     10 H          11.6934   -4.3348   12.4918 H       1  LIG1        0.0663
     11 C           9.8146   -3.8277   13.2292 C.3     1  LIG1        0.1617
     12 H          10.0470   -3.9262   14.1751 H       1  LIG1        0.0789
     13 C          10.8310   -1.2789   12.8657 C.3     1  LIG1        0.2754
     14 H          11.2874   -0.5117   13.2709 H       1  LIG1        0.1257
     15 C           6.4064   -1.4944   11.5446 C.2     1  LIG1        0.3396
     16 C           5.5765   -0.3025   11.2463 C.ar    1  LIG1        0.0590
     17 C           4.2106   -0.3388   11.5121 C.ar    1  LIG1       -0.0478
     18 H           3.8346   -1.1113   11.8704 H       1  LIG1        0.0626
     19 C           3.4128    0.7419   11.2567 C.ar    1  LIG1       -0.0610
     20 H           2.5058    0.7142   11.4626 H       1  LIG1        0.0618
     21 C           3.9604    1.8723   10.6939 C.ar    1  LIG1       -0.0617
     22 H           3.4120    2.5975   10.5011 H       1  LIG1        0.0618
     23 C           5.3096    1.9478   10.4125 C.ar    1  LIG1       -0.0610
     24 H           5.6691    2.7191   10.0372 H       1  LIG1        0.0618
     25 C           6.1270    0.8547   10.6965 C.ar    1  LIG1       -0.0478
     26 H           7.0390    0.8973   10.5206 H       1  LIG1        0.0626
     27 C           8.3131   -5.6596   13.5693 C.2     1  LIG1        0.3396
     28 C           7.7628   -6.9056   12.9596 C.ar    1  LIG1        0.0590
     29 C           6.7431   -7.5738   13.6097 C.ar    1  LIG1       -0.0478
     30 H           6.4020   -7.2385   14.4070 H       1  LIG1        0.0626
     31 C           6.2266   -8.7449   13.0716 C.ar    1  LIG1       -0.0610
     32 H           5.5363   -9.1856   13.5107 H       1  LIG1        0.0618
     33 C           6.7106   -9.2479   11.9277 C.ar    1  LIG1       -0.0617
     34 H           6.3592  -10.0374   11.5863 H       1  LIG1        0.0618
     35 C           7.7127   -8.6110   11.2593 C.ar    1  LIG1       -0.0610
     36 H           8.0371   -8.9662   10.4633 H       1  LIG1        0.0618
     37 C           8.2597   -7.4179   11.7726 C.ar    1  LIG1       -0.0478
     38 H           8.9438   -6.9805   11.3206 H       1  LIG1        0.0626
     39 C          11.1229   -5.3893    9.8796 C.3     1  LIG1        0.0370
     40 H          11.9205   -5.0387    9.4770 H       1  LIG1        0.0524
     41 H          10.6910   -5.9876    9.2659 H       1  LIG1        0.0524
     42 H          11.3527   -5.8649   10.6809 H       1  LIG1        0.0524
     43 C           3.7333    6.8711    6.4778 C.3     2  LIG2        0.1425
     44 H           2.8956    7.0066    5.9879 H       2  LIG2        0.0674
     45 C           4.6546    8.0915    6.2967 C.3     2  LIG2        0.1617
     46 H           4.8784    8.1988    5.3482 H       2  LIG2        0.0789
     47 C           5.9222    7.8203    7.0954 C.3     2  LIG2        0.1319
     48 H           6.5382    8.5765    7.0068 H       2  LIG2        0.0663
     49 C           5.6889    7.5139    8.5702 C.3     2  LIG2        0.1179
     50 H           6.5452    7.2671    8.9767 H       2  LIG2        0.0650
     51 C           4.7404    6.2955    8.6432 C.3     2  LIG2        0.1319
     52 H           4.5689    6.0585    9.5786 H       2  LIG2        0.0663
     53 C           3.4436    6.6456    7.9501 C.3     2  LIG2        0.1617
     54 H           3.0532    7.4522    8.3474 H       2  LIG2        0.0789
     55 C           5.6432    5.5227    6.6290 C.3     2  LIG2        0.2754
     56 H           6.0880    4.7531    6.2172 H       2  LIG2        0.1257
     57 C           3.1526    9.9186    5.9932 C.2     2  LIG2        0.3396
     58 C           2.6104   11.1605    6.6407 C.ar    2  LIG2        0.0590
     59 C           1.5727   11.8318    6.0179 C.ar    2  LIG2       -0.0478
     60 H           1.2215   11.5205    5.2140 H       2  LIG2        0.0626
     61 C           1.0560   12.9990    6.6211 C.ar    2  LIG2       -0.0610
     62 H           0.3488   13.4510    6.2186 H       2  LIG2        0.0618
     63 C           1.5775   13.4662    7.7768 C.ar    2  LIG2       -0.0617
     64 H           1.2353   14.2429    8.1559 H       2  LIG2        0.0618
     65 C           2.6068   12.8059    8.3956 C.ar    2  LIG2       -0.0610
     66 H           2.9602   13.1389    9.1891 H       2  LIG2        0.0618
     67 C           3.1200   11.6499    7.8458 C.ar    2  LIG2       -0.0478
     68 H           3.8071   11.1972    8.2771 H       2  LIG2        0.0626
     69 C           1.2335    5.7823    7.9970 C.2     2  LIG2        0.3396
     70 C           0.3897    4.5834    8.2862 C.ar    2  LIG2        0.0590
     71 C           0.9158    3.4330    8.8178 C.ar    2  LIG2       -0.0478
     72 H           1.8292    3.3769    8.9832 H       2  LIG2        0.0626
     73 C           0.0906    2.3491    9.1148 C.ar    2  LIG2       -0.0610
     74 H           0.4475    1.5732    9.4822 H       2  LIG2        0.0618
     75 C          -1.2408    2.4408    8.8581 C.ar    2  LIG2       -0.0617
     76 H          -1.7952    1.7210    9.0601 H       2  LIG2        0.0618
     77 C          -1.7773    3.5622    8.3123 C.ar    2  LIG2       -0.0610
     78 H          -2.6885    3.5957    8.1285 H       2  LIG2        0.0618
     79 C          -0.9793    4.6538    8.0282 C.ar    2  LIG2       -0.0478
     80 H          -1.3510    5.4262    7.6699 H       2  LIG2        0.0626
     81 C           6.0438    9.6210    9.6047 C.3     2  LIG2        0.0370
     82 H           6.8567    9.2528    9.9578 H       2  LIG2        0.0524
     83 H           5.6588   10.2210   10.2483 H       2  LIG2        0.0524
     84 H           6.2337   10.0978    8.7956 H       2  LIG2        0.0524
     85 O           9.6287   -1.4749   13.5749 O.3     1  LIG1       -0.3180
     86 O           7.7234   -1.2459   11.3989 O.3     1  LIG1       -0.4524
     87 O          10.5755   -0.9523   11.5261 O.3     1  LIG1       -0.3191
     88 O          10.2379   -4.3147   10.2007 O.3     1  LIG1       -0.3744
     89 O          11.6874   -2.3838   12.9869 O.3     1  LIG1       -0.3191
     90 O           9.1943   -5.0436   12.7481 O.3     1  LIG1       -0.4524
     91 O           5.9663   -2.5765   11.8547 O.2     1  LIG1       -0.2449
     92 O           8.0208   -5.2307   14.6455 O.2     1  LIG1       -0.2449
     93 O           4.4458    5.7409    5.9377 O.3     2  LIG2       -0.3180
     94 O           4.0373    9.3067    6.7939 O.3     2  LIG2       -0.4524
     95 O           6.5140    6.6372    6.5078 O.3     2  LIG2       -0.3191
     96 O           5.1157    8.5572    9.3277 O.3     2  LIG2       -0.3744
     97 O           5.3965    5.2039    7.9692 O.3     2  LIG2       -0.3191
     98 O           2.5487    5.5140    8.1257 O.3     2  LIG2       -0.4524
     99 O           2.8476    9.5146    4.9144 O.2     2  LIG2       -0.2449
    100 O           0.8164    6.8619    7.6712 O.2     2  LIG2       -0.2449
@<TRIPOS>BOND
     1    99    57    2
     2    60    59    1
     3    46    45    1
     4    93    43    1
     5    93    55    1
     6    44    43    1
     7    57    58    1
     8    57    94    1
     9    59    61   ar
    10    59    58   ar
    11    56    55    1
    12    62    61    1
    13    45    43    1
    14    45    94    1
    15    45    47    1
    16    43    53    1
    17    95    55    1
    18    95    47    1
    19    61    63   ar
    20    55    97    1
    21    58    67   ar
    22    48    47    1
    23    47    49    1
    24    80    79    1
    25   100    69    2
    26    63    64    1
    27    63    65   ar
    28    67    68    1
    29    67    65   ar
    30    53    98    1
    31    53    54    1
    32    53    51    1
    33    97    51    1
    34    69    98    1
    35    69    70    1
    36    79    70   ar
    37    79    77   ar
    38    78    77    1
    39    70    71   ar
    40    77    75   ar
    41    65    66    1
    42    49    51    1
    43    49    50    1
    44    49    96    1
    45    51    52    1
    46    84    81    1
    47    71    72    1
    48    71    73   ar
    49    75    76    1
    50    75    73   ar
    51    73    74    1
    52    41    39    1
    53    96    81    1
    54    40    39    1
    55    81    82    1
    56    81    83    1
    57    39    88    1
    58    39    42    1
    59     6     5    1
    60    24    23    1
    61    88     7    1
    62    23    21   ar
    63    23    25   ar
    64    36    35    1
    65    22    21    1
    66     8     7    1
    67    26    25    1
    68    21    19   ar
    69    25    16   ar
    70     5     7    1
    71     5    87    1
    72     5     3    1
    73     7     9    1
    74     4     3    1
    75    16    17   ar
    76    16    15    1
    77    19    20    1
    78    19    17   ar
    79    35    37   ar
    80    35    33   ar
    81    38    37    1
    82    86    15    1
    83    86     3    1
    84    17    18    1
    85    87    13    1
    86    15    91    2
    87     3     1    1
    88    34    33    1
    89    37    28   ar
    90    33    31   ar
    91     9    10    1
    92     9    89    1
    93     9    11    1
    94    90    11    1
    95    90    27    1
    96    13    89    1
    97    13    14    1
    98    13    85    1
    99    28    27    1
   100    28    29   ar
   101     1    11    1
   102     1     2    1
   103     1    85    1
   104    31    32    1
   105    31    29   ar
   106    11    12    1
   107    27    92    2
   108    29    30    1
