@<TRIPOS>MOLECULE
?
 28 28 0 0 0
SMALL
GASTEIGER

@<TRIPOS>ATOM
      1 CL          2.2415    4.3888    1.4483 Cl      1  LIG1       -0.0835
      2 O           6.6938    2.6496    4.8083 O.3     1  LIG1       -0.5061
      3 N           5.1009    2.2740    6.6816 N.2     1  LIG1       -0.2878
      4 C           5.6575    3.0102    4.0808 C.ar    1  LIG1        0.1258
      5 C           4.3312    3.0583    4.6120 C.ar    1  LIG1        0.0383
      6 C           3.2926    3.4908    3.7793 C.ar    1  LIG1       -0.0310
      7 C           3.5392    3.8436    2.4798 C.ar    1  LIG1        0.0418
      8 C           4.8272    3.7715    1.9457 C.ar    1  LIG1       -0.0399
      9 C           5.8545    3.3539    2.7408 C.ar    1  LIG1       -0.0182
     10 C           4.0871    2.6604    5.9973 C.2     1  LIG1        0.0434
     11 C           2.6966    2.6941    6.5650 C.3     1  LIG1       -0.0221
     12 C           5.0314    1.8474    8.0757 C.3     1  LIG1        0.0397
     13 C           6.3976    1.4105    8.5509 C.3     1  LIG1       -0.0363
     14 C           6.4096    1.0967   10.0314 C.3     1  LIG1       -0.0636
     15 H           6.2821    2.4902    5.7301 H       1  LIG1        0.2922
     16 H           2.3535    3.5347    4.0790 H       1  LIG1        0.0640
     17 H           5.0454    3.9654    1.1223 H       1  LIG1        0.0633
     18 H           6.7730    3.2617    2.3956 H       1  LIG1        0.0655
     19 H           2.1533    2.2581    6.1833 H       1  LIG1        0.0293
     20 H           2.3330    3.5885    6.4207 H       1  LIG1        0.0293
     21 H           2.6878    2.4905    7.4566 H       1  LIG1        0.0293
     22 H           4.7588    2.5947    8.5843 H       1  LIG1        0.0508
     23 H           4.4132    1.0998    8.2465 H       1  LIG1        0.0508
     24 H           7.0399    2.0686    8.2660 H       1  LIG1        0.0280
     25 H           6.6644    0.5964    8.0178 H       1  LIG1        0.0280
     26 H           7.2791    0.8473   10.3918 H       1  LIG1        0.0230
     27 H           5.7329    0.5083   10.2623 H       1  LIG1        0.0230
     28 H           6.1848    1.8829   10.4566 H       1  LIG1        0.0230
@<TRIPOS>BOND
     1    17     8    1
     2     1     7    1
     3     8     7   ar
     4     8     9   ar
     5    18     9    1
     6     7     6   ar
     7     9     4   ar
     8     6    16    1
     9     6     5   ar
    10     4     5   ar
    11     4     2    1
    12     5    10    1
    13     2    15    1
    14    10    11    1
    15    10     3    2
    16    19    11    1
    17    20    11    1
    18    11    21    1
    19     3    12    1
    20    25    13    1
    21    12    23    1
    22    12    13    1
    23    12    22    1
    24    24    13    1
    25    13    14    1
    26    14    27    1
    27    14    26    1
    28    14    28    1
