@<TRIPOS>MOLECULE
?
 36 38 0 0 0
SMALL
GASTEIGER

@<TRIPOS>ATOM
      1 C          10.6235    2.6851    7.8404 C.ar    1  LIG1        0.0704
      2 C           9.6727    3.5786    5.7800 C.ar    1  LIG1        0.0704
      3 C           9.1459    4.1870    6.8804 C.ar    1  LIG1        0.0435
      4 C           9.7129    3.6609    8.0967 C.ar    1  LIG1        0.0435
      5 C           8.6601    6.8324    7.6000 C.3     1  LIG1       -0.0009
      6 H           9.5999    6.8893    7.2931 H       1  LIG1        0.0380
      7 H           8.1982    7.6521    7.2902 H       1  LIG1        0.0380
      8 C           8.6553    6.8308    9.1145 C.3     1  LIG1       -0.0343
      9 H           7.7407    6.6070    9.4200 H       1  LIG1        0.0281
     10 H           8.8541    7.7495    9.4244 H       1  LIG1        0.0281
     11 C           9.6384    5.8704    9.7979 C.3     1  LIG1       -0.0009
     12 H           9.7160    6.1324   10.7492 H       1  LIG1        0.0380
     13 H          10.5296    5.9929    9.3838 H       1  LIG1        0.0380
     14 C           5.1268    6.8887   15.6880 C.ar    2  LIG2        0.0704
     15 C           7.3602    6.3664   14.8352 C.ar    2  LIG2        0.0704
     16 C           5.0992    6.5984   14.3574 C.ar    2  LIG2        0.0435
     17 C           6.4261    6.3014   13.8463 C.ar    2  LIG2        0.0435
     18 C           5.8847    4.5431   11.7381 C.3     2  LIG2       -0.0009
     19 H           6.3095    4.1253   10.9476 H       2  LIG2        0.0380
     20 H           5.9718    3.9074   12.4925 H       2  LIG2        0.0380
     21 C           4.4003    4.7324   11.4413 C.3     2  LIG2       -0.0343
     22 H           4.0612    3.9098   11.0069 H       2  LIG2        0.0281
     23 H           4.3033    5.4732   10.7912 H       2  LIG2        0.0281
     24 C           3.5188    5.0364   12.6561 C.3     2  LIG2       -0.0009
     25 H           3.7352    4.3778   13.3627 H       2  LIG2        0.0380
     26 H           2.5761    4.8868   12.3940 H       2  LIG2        0.0380
     27 S          10.8188    2.3483    6.1581 S.2     1  LIG1       -0.0723
     28 S           7.8823    5.4006    6.7850 S.3     1  LIG1       -0.1224
     29 S           9.2150    4.0997    9.7264 S.3     1  LIG1       -0.1224
     30 S           6.7105    6.8144   16.3656 S.2     2  LIG2       -0.0723
     31 S           3.6410    6.6978   13.3842 S.3     2  LIG2       -0.1224
     32 S           6.8144    6.0538   12.1544 S.3     2  LIG2       -0.1224
     33 BR         11.6420    1.7028    9.0607 Br      1  LIG1       -0.0414
     34 BR          9.2938    3.9446    3.9810 Br      1  LIG1       -0.0414
     35 BR          3.6882    7.3632   16.7827 Br      2  LIG2       -0.0414
     36 BR          9.2132    6.1707   14.6820 Br      2  LIG2       -0.0414
@<TRIPOS>BOND
     1    34     2    1
     2     2    27   ar
     3     2     3   ar
     4    27     1   ar
     5    28     3    1
     6    28     5    1
     7     3     4   ar
     8     7     5    1
     9     6     5    1
    10     5     8    1
    11     1     4   ar
    12     1    33    1
    13     4    29    1
    14     8     9    1
    15     8    10    1
    16     8    11    1
    17    13    11    1
    18    29    11    1
    19    11    12    1
    20    23    21    1
    21    19    18    1
    22    22    21    1
    23    21    18    1
    24    21    24    1
    25    18    32    1
    26    18    20    1
    27    32    17    1
    28    26    24    1
    29    24    25    1
    30    24    31    1
    31    31    16    1
    32    17    16   ar
    33    17    15   ar
    34    16    14   ar
    35    36    15    1
    36    15    30   ar
    37    14    30   ar
    38    14    35    1
