@<TRIPOS>MOLECULE
7204533.cif
 53 58 0 0 0
SMALL
GASTEIGER

@<TRIPOS>ATOM
      1 O           9.5144    2.4415    5.3876 O.3     1  LIG1       -0.3777
      2 H           9.2661    3.1669    5.0452 H       1  LIG1        0.2111
      3 N           7.8612    3.0684    3.3895 N.3     1  LIG1       -0.2823
      4 C           6.9583    2.0972    4.0551 C.3     1  LIG1        0.0192
      5 H           6.8726    2.1450    5.0397 H       1  LIG1        0.0443
      6 H           6.1324    1.8306    3.5776 H       1  LIG1        0.0443
      7 C           8.2574    1.6536    3.4931 C.3     1  LIG1        0.0611
      8 H           8.2194    1.1171    2.6502 H       1  LIG1        0.0511
      9 C           9.4644    1.4095    4.4034 C.3     1  LIG1        0.1325
     10 C          10.7287    1.4247    3.5307 C.ar    1  LIG1       -0.0102
     11 C          11.6425    2.4708    3.5918 C.ar    1  LIG1       -0.0555
     12 H          11.5155    3.1768    4.2146 H       1  LIG1        0.0621
     13 C          12.7464    2.4837    2.7389 C.ar    1  LIG1       -0.0614
     14 H          13.3708    3.1987    2.7877 H       1  LIG1        0.0618
     15 C          12.9423    1.4686    1.8261 C.ar    1  LIG1       -0.0617
     16 H          13.6933    1.4890    1.2431 H       1  LIG1        0.0618
     17 C          12.0387    0.4202    1.7628 C.ar    1  LIG1       -0.0614
     18 H          12.1699   -0.2804    1.1342 H       1  LIG1        0.0618
     19 C          10.9413    0.3873    2.6150 C.ar    1  LIG1       -0.0555
     20 H          10.3337   -0.3416    2.5754 H       1  LIG1        0.0621
     21 C           9.3535    0.0921    5.1644 C.ar    1  LIG1       -0.0102
     22 C          10.3440   -0.2004    6.1051 C.ar    1  LIG1       -0.0555
     23 H          11.0555    0.4119    6.2454 H       1  LIG1        0.0621
     24 C          10.2943   -1.3801    6.8380 C.ar    1  LIG1       -0.0614
     25 H          10.9753   -1.5729    7.4720 H       1  LIG1        0.0618
     26 C           9.2540   -2.2757    6.6450 C.ar    1  LIG1       -0.0617
     27 H           9.2139   -3.0762    7.1541 H       1  LIG1        0.0618
     28 C           8.2728   -2.0004    5.7082 C.ar    1  LIG1       -0.0614
     29 H           7.5628   -2.6167    5.5710 H       1  LIG1        0.0618
     30 C           8.3216   -0.8223    4.9647 C.ar    1  LIG1       -0.0555
     31 H           7.6471   -0.6425    4.3191 H       1  LIG1        0.0621
     32 C           7.3977    3.5313    2.0731 C.3     1  LIG1        0.0625
     33 H           6.9911    2.7694    1.5699 H       1  LIG1        0.0563
     34 C           8.5006    4.1723    1.2393 C.ar    1  LIG1       -0.0181
     35 C           9.7113    3.6378    0.8173 C.ar    1  LIG1       -0.0562
     36 H           9.9756    2.7648    1.0836 H       1  LIG1        0.0621
     37 C          10.5308    4.4133   -0.0091 C.ar    1  LIG1       -0.0614
     38 H          11.3695    4.0671   -0.2926 H       1  LIG1        0.0618
     39 C          10.1422    5.6770   -0.4210 C.ar    1  LIG1       -0.0612
     40 H          10.7058    6.1766   -0.9989 H       1  LIG1        0.0618
     41 C           8.9320    6.2220    0.0046 C.ar    1  LIG1       -0.0537
     42 H           8.6649    7.0897   -0.2761 H       1  LIG1        0.0624
     43 C           8.1233    5.4661    0.8507 C.ar    1  LIG1       -0.0126
     44 C           6.8181    5.7776    1.4589 C.ar    1  LIG1       -0.0126
     45 C           6.0494    6.9355    1.3997 C.ar    1  LIG1       -0.0537
     46 H           6.3381    7.6853    0.8922 H       1  LIG1        0.0624
     47 C           4.8463    6.9688    2.1017 C.ar    1  LIG1       -0.0612
     48 H           4.3100    7.7510    2.0737 H       1  LIG1        0.0618
     49 C           4.4221    5.8720    2.8422 C.ar    1  LIG1       -0.0614
     50 H           3.6017    5.9174    3.3202 H       1  LIG1        0.0618
     51 C           5.1867    4.7035    2.8915 C.ar    1  LIG1       -0.0562
     52 H           4.8910    3.9515    3.3906 H       1  LIG1        0.0621
     53 C           6.3896    4.6648    2.1958 C.ar    1  LIG1       -0.0181
@<TRIPOS>BOND
     1    40    39    1
     2    39    37   ar
     3    39    41   ar
     4    38    37    1
     5    42    41    1
     6    37    35   ar
     7    41    43   ar
     8    35    36    1
     9    35    34   ar
    10    43    34   ar
    11    43    44    1
    12    46    45    1
    13    18    17    1
    14    34    32    1
    15    16    15    1
    16    45    44   ar
    17    45    47   ar
    18    44    53   ar
    19    33    32    1
    20    17    15   ar
    21    17    19   ar
    22    15    13   ar
    23    32    53    1
    24    32     3    1
    25    48    47    1
    26    47    49   ar
    27    53    51   ar
    28    20    19    1
    29    19    10   ar
    30     8     7    1
    31    13    14    1
    32    13    11   ar
    33    49    51   ar
    34    49    50    1
    35    51    52    1
    36     3     7    1
    37     3     4    1
    38     7     4    1
    39     7     9    1
    40    10    11   ar
    41    10     9    1
    42     6     4    1
    43    11    12    1
    44     4     5    1
    45    31    30    1
    46     9    21    1
    47     9     1    1
    48    30    21   ar
    49    30    28   ar
    50     2     1    1
    51    21    22   ar
    52    29    28    1
    53    28    26   ar
    54    22    23    1
    55    22    24   ar
    56    26    24   ar
    57    26    27    1
    58    24    25    1
