@<TRIPOS>MOLECULE
C18 H8 S4 1+,C11 H9 N4 O1 1-
 55 59 0 0 0
SMALL
GASTEIGER

@<TRIPOS>ATOM
      1 S           4.1020    2.4188    0.7328 S.3     1  LIG1       -0.0507
      2 S           4.1298    0.3622    0.8526 S.3     1  LIG1       -0.0507
      3 S           8.4666    0.6672    5.3627 S.3     1  LIG1       -0.0507
      4 S           8.4011    2.7370    5.2770 S.3     1  LIG1       -0.0507
      5 O          -0.7807    1.8701    0.8383 O.2     2  LIG2       -0.4915
      6 N          -1.9519   -1.2643    1.0229 N.1     2  LIG2       -0.1900
      7 N           1.7744   -1.3191    3.2455 N.1     2  LIG2       -0.1900
      8 N           2.2603    1.8437    4.5420 N.1     2  LIG2       -0.1944
      9 N           1.5133    4.6817    1.5140 N.1     2  LIG2       -0.1944
     10 C           5.2790    2.6778    1.9678 C.ar    1  LIG1        0.0356
     11 C           5.7858    1.5211    2.5314 C.ar    1  LIG1        0.0139
     12 C           5.3488    0.2809    2.0743 C.ar    1  LIG1        0.0356
     13 C           5.8483   -0.9262    2.6314 C.ar    1  LIG1       -0.0020
     14 C           5.3935   -2.1883    2.2226 C.ar    1  LIG1       -0.0529
     15 C           5.8597   -3.3341    2.7951 C.ar    1  LIG1       -0.0611
     16 C           6.8302   -3.2660    3.7982 C.ar    1  LIG1       -0.0611
     17 C           7.3150   -2.0720    4.2245 C.ar    1  LIG1       -0.0529
     18 C           6.8395   -0.8582    3.6740 C.ar    1  LIG1       -0.0020
     19 C           7.2872    0.4192    4.1047 C.ar    1  LIG1        0.0356
     20 C           6.7762    1.5891    3.5620 C.ar    1  LIG1        0.0139
     21 C           7.2163    2.8314    4.0047 C.ar    1  LIG1        0.0356
     22 C           6.7057    4.0430    3.4642 C.ar    1  LIG1       -0.0020
     23 C           7.1219    5.3117    3.8949 C.ar    1  LIG1       -0.0529
     24 C           6.6033    6.4442    3.3301 C.ar    1  LIG1       -0.0611
     25 C           5.6404    6.3718    2.3149 C.ar    1  LIG1       -0.0611
     26 C           5.1979    5.1624    1.8700 C.ar    1  LIG1       -0.0529
     27 C           5.7098    3.9662    2.4116 C.ar    1  LIG1       -0.0020
     28 C          -1.0814   -0.6651    1.4624 C.1     2  LIG2        0.1137
     29 C           0.9904   -0.6782    2.7138 C.1     2  LIG2        0.1137
     30 C           1.6868    2.0237    3.5773 C.1     2  LIG2        0.0955
     31 C           1.2330    3.6391    1.8952 C.1     2  LIG2        0.0955
     32 C           0.0062    0.0724    2.0183 C.2     2  LIG2        0.1680
     33 C           0.0851    1.4442    1.7942 C.2     2  LIG2        0.1622
     34 C           0.9563    2.3420    2.4160 C.3     2  LIG2        0.2388
     35 C          -1.4272    3.1453    0.9229 C.3     2  LIG2        0.0893
     36 C          -2.6460    3.1804    0.2637 C.3     2  LIG2       -0.0189
     37 C          -3.4182    4.4798    0.4109 C.3     2  LIG2       -0.0528
     38 C          -3.0984    5.4829   -0.5746 C.3     2  LIG2       -0.0652
     39 H           4.7201   -2.2168    1.5162 H       1  LIG1        0.0624
     40 H           5.5062   -4.1923    2.4721 H       1  LIG1        0.0618
     41 H           7.1474   -4.0825    4.2190 H       1  LIG1        0.0618
     42 H           7.9472   -2.0413    4.9221 H       1  LIG1        0.0624
     43 H           7.8019    5.3556    4.6584 H       1  LIG1        0.0624
     44 H           6.9693    7.2432    3.6037 H       1  LIG1        0.0618
     45 H           5.2894    7.1334    1.8788 H       1  LIG1        0.0618
     46 H           4.4741    5.0922    1.1426 H       1  LIG1        0.0624
     47 H          -0.8627    3.7884    0.4878 H       2  LIG2        0.0696
     48 H          -1.5436    3.4021    1.8403 H       2  LIG2        0.0696
     49 H          -3.1634    2.4627    0.6372 H       2  LIG2        0.0298
     50 H          -2.5126    3.0158   -0.6724 H       2  LIG2        0.0298
     51 H          -3.2157    4.8332    1.2811 H       2  LIG2        0.0264
     52 H          -4.3611    4.3064    0.3549 H       2  LIG2        0.0264
     53 H          -3.5716    6.3103   -0.4604 H       2  LIG2        0.0230
     54 H          -3.3009    5.1295   -1.4448 H       2  LIG2        0.0230
     55 H          -2.1547    5.6563   -0.5197 H       2  LIG2        0.0230
@<TRIPOS>BOND
     1    54    38    1
     2    50    36    1
     3    38    55    1
     4    38    53    1
     5    38    37    1
     6    36    37    1
     7    36    49    1
     8    36    35    1
     9    52    37    1
    10    37    51    1
    11    47    35    1
    12     1     2    2
    13     1    10    1
    14     5    35    1
    15     5    33    1
    16     2    12    1
    17    35    48    1
    18     6    28    3
    19    46    26    1
    20    28    32    1
    21     9    31    3
    22    39    14    1
    23    33    32    2
    24    33    34    1
    25    26    25   ar
    26    26    27   ar
    27    45    25    1
    28    31    34    1
    29    10    27   ar
    30    10    11   ar
    31    32    29    1
    32    12    11   ar
    33    12    13   ar
    34    14    13   ar
    35    14    15   ar
    36    25    24   ar
    37    27    22   ar
    38    34    30    1
    39    40    15    1
    40    11    20   ar
    41    13    18   ar
    42    29     7    3
    43    15    16   ar
    44    24    44    1
    45    24    23   ar
    46    22    23   ar
    47    22    21   ar
    48    20    21   ar
    49    20    19   ar
    50    30     8    3
    51    18    19   ar
    52    18    17   ar
    53    16    41    1
    54    16    17   ar
    55    23    43    1
    56    21     4    1
    57    19     3    1
    58    17    42    1
    59     4     3    2
