@<TRIPOS>MOLECULE
1-(2-hydroxypropyl)-3-methylimidazolium tetraphenylborate
 68 71 0 0 0
SMALL
GASTEIGER

@<TRIPOS>ATOM
      1 B          -2.0709    1.3149    8.4789 B       1  LIG1        0.0000
      2 N           3.2833    0.4725   10.3520 N.pl3   2  LIG2        0.0000
      3 N           2.5629    1.4019   12.1647 N.pl3   2  LIG2        0.0000
      4 O           1.1144   -0.8181    8.9833 O.3     2  LIG2        0.0000
      5 H           0.4385   -0.4467    8.5723 H       2  LIG2        0.0000
      6 C           2.5663    0.2835   11.4569 C.3     2  LIG2        0.0000
      7 H           2.1021   -0.5433   11.7191 H       2  LIG2        0.0000
      8 C           3.3164    2.3459   11.4955 C.2     2  LIG2        0.0000
      9 H           3.4253    3.2458   11.8174 H       2  LIG2        0.0000
     10 C           3.7535    1.7695   10.3648 C.2     2  LIG2        0.0000
     11 H           4.2494    2.0754    9.6187 H       2  LIG2        0.0000
     12 C           1.9516    1.5784   13.4838 C.3     2  LIG2        0.0000
     13 H           1.5609    0.7121   13.7403 H       2  LIG2        0.0000
     14 H           1.3242    2.3063   13.4282 H       2  LIG2        0.0000
     15 H           2.6064    1.7147   14.1839 H       2  LIG2        0.0000
     16 C           3.4332   -0.4824    9.2573 C.3     2  LIG2        0.0000
     17 H           3.4722   -1.3830    9.6348 H       2  LIG2        0.0000
     18 H           4.2849   -0.3122    8.7882 H       2  LIG2        0.0000
     19 C           2.2788   -0.3793    8.2782 C.3     2  LIG2        0.0000
     20 H           2.1424    0.5760    8.0561 H       2  LIG2        0.0000
     21 C           2.5110   -1.2146    7.0406 C.3     2  LIG2        0.0000
     22 H           1.7892   -1.1028    6.3598 H       2  LIG2        0.0000
     23 H           2.6813   -2.1839    7.3036 H       2  LIG2        0.0000
     24 H           3.3429   -0.9282    6.6056 H       2  LIG2        0.0000
     25 C          -3.2476    2.0277    7.5522 C.ar    1  LIG1        0.0000
     26 C          -4.4681    1.3996    7.2569 C.ar    1  LIG1        0.0000
     27 H          -4.6001    0.4543    7.5291 H       1  LIG1        0.0000
     28 C          -5.4875    2.0236    6.5420 C.ar    1  LIG1        0.0000
     29 H          -6.3357    1.5031    6.3950 H       1  LIG1        0.0000
     30 C          -5.3228    3.3112    6.0693 C.ar    1  LIG1        0.0000
     31 H          -6.0055    3.7927    5.5613 H       1  LIG1        0.0000
     32 C          -4.1246    3.9691    6.3184 C.ar    1  LIG1        0.0000
     33 H          -4.0166    4.8842    5.9707 H       1  LIG1        0.0000
     34 C          -3.1256    3.3282    7.0433 C.ar    1  LIG1        0.0000
     35 H          -2.2767    3.8160    7.1668 H       1  LIG1        0.0000
     36 C          -0.6168    1.9793    8.0178 C.ar    1  LIG1        0.0000
     37 C          -0.2111    1.9853    6.6732 C.ar    1  LIG1        0.0000
     38 H          -0.7371    1.5438    5.9739 H       1  LIG1        0.0000
     39 C           0.9554    2.6143    6.2284 C.ar    1  LIG1        0.0000
     40 H           1.1604    2.5469    5.2492 H       1  LIG1        0.0000
     41 C           1.7578    3.2989    7.1300 C.ar    1  LIG1        0.0000
     42 H           2.5440    3.7560    6.8279 H       1  LIG1        0.0000
     43 C           1.3982    3.3306    8.4651 C.ar    1  LIG1        0.0000
     44 H           1.9504    3.8132    9.1623 H       1  LIG1        0.0000
     45 C           0.2427    2.6697    8.8958 C.ar    1  LIG1        0.0000
     46 H           0.0254    2.7262    9.8956 H       1  LIG1        0.0000
     47 C          -2.1737   -0.3238    8.2239 C.ar    1  LIG1        0.0000
     48 C          -3.0174   -1.1186    9.0229 C.ar    1  LIG1        0.0000
     49 H          -3.4128   -0.7362    9.8058 H       1  LIG1        0.0000
     50 C          -3.2979   -2.4530    8.7487 C.ar    1  LIG1        0.0000
     51 H          -3.9155   -2.9335    9.3526 H       1  LIG1        0.0000
     52 C          -2.7152   -3.0687    7.6525 C.ar    1  LIG1        0.0000
     53 H          -2.9174   -3.9740    7.4511 H       1  LIG1        0.0000
     54 C          -1.8473   -2.3404    6.8539 C.ar    1  LIG1        0.0000
     55 H          -1.4293   -2.7682    6.0551 H       1  LIG1        0.0000
     56 C          -1.5921   -1.0005    7.1400 C.ar    1  LIG1        0.0000
     57 H          -1.0030   -0.5064    6.5393 H       1  LIG1        0.0000
     58 C          -2.3419    1.6062   10.0758 C.ar    1  LIG1        0.0000
     59 C          -3.3851    2.4019   10.5696 C.ar    1  LIG1        0.0000
     60 H          -3.9929    2.8241    9.8977 H       1  LIG1        0.0000
     61 C          -3.5978    2.6148   11.9283 C.ar    1  LIG1        0.0000
     62 H          -4.2922    3.1821   12.2653 H       1  LIG1        0.0000
     63 C          -2.7729    2.0351   12.8640 C.ar    1  LIG1        0.0000
     64 H          -2.9329    2.1940   13.8504 H       1  LIG1        0.0000
     65 C          -1.7258    1.2377   12.4170 C.ar    1  LIG1        0.0000
     66 H          -1.1696    0.8220   13.0701 H       1  LIG1        0.0000
     67 C          -1.5233    1.0324   11.0660 C.ar    1  LIG1        0.0000
     68 H          -0.8147    0.4346   10.7571 H       1  LIG1        0.0000
@<TRIPOS>BOND
     1    40    39    1
     2    31    30    1
     3    33    32    1
     4    38    37    1
     5    55    54    1
     6    30    32   ar
     7    30    28   ar
     8    39    37   ar
     9    39    41   ar
    10    32    34   ar
    11    22    21    1
    12    29    28    1
    13    57    56    1
    14    28    26   ar
    15    24    21    1
    16    37    36   ar
    17    42    41    1
    18    54    56   ar
    19    54    52   ar
    20    21    23    1
    21    21    19    1
    22    34    35    1
    23    34    25   ar
    24    41    43   ar
    25    56    47   ar
    26    26    27    1
    27    26    25   ar
    28    53    52    1
    29    25     1    1
    30    52    50   ar
    31    36     1    1
    32    36    45   ar
    33    20    19    1
    34    47     1    1
    35    47    48   ar
    36    19     4    1
    37    19    16    1
    38    43    45   ar
    39    43    44    1
    40     1    58    1
    41     5     4    1
    42    50    48   ar
    43    50    51    1
    44    18    16    1
    45    45    46    1
    46    48    49    1
    47    16    17    1
    48    16     2    1
    49    11    10    1
    50    60    59    1
    51    58    59   ar
    52    58    67   ar
    53     2    10    1
    54     2     6    1
    55    10     8    2
    56    59    61   ar
    57    68    67    1
    58    67    65   ar
    59     6     7    1
    60     6     3    1
    61     8     9    1
    62     8     3    1
    63    61    62    1
    64    61    63   ar
    65     3    12    1
    66    65    63   ar
    67    65    66    1
    68    63    64    1
    69    14    12    1
    70    12    13    1
    71    12    15    1
