@<TRIPOS>MOLECULE
1,4-dioxane solvate of 2-chloro-4-nitrobenzoic acid
 24 23 0 0 0
SMALL
GASTEIGER

@<TRIPOS>ATOM
      1 CL          2.0047   -2.4173    0.3840 Cl      1  LIG1       -0.0826
      2 O           2.1047   -0.1343    4.0791 O.3     1  LIG1       -0.4771
      3 O           3.2283   -1.7178    2.9679 O.2     1  LIG1       -0.2451
      4 O           0.5804    1.5011   -2.6992 O.2     1  LIG1       -0.1261
      5 N           1.0639    2.1192   -1.7597 N.pl3   1  LIG1        0.0565
      6 C           1.5564    0.0011   -0.6367 C.ar    1  LIG1       -0.0123
      7 H           1.4235   -0.4520   -1.4611 H       1  LIG1        0.0655
      8 O           1.2646    3.3283   -1.7622 O.2     1  LIG1       -0.1261
      9 C           1.4159    1.3735   -0.5397 C.ar    1  LIG1        0.1276
     10 C           1.8996   -0.6911    0.5200 C.ar    1  LIG1        0.0571
     11 C           2.0875   -0.0221    1.7348 C.ar    1  LIG1        0.0772
     12 C           1.9095    1.3595    1.7821 C.ar    1  LIG1       -0.0442
     13 H           2.0194    1.8172    2.6070 H       1  LIG1        0.0627
     14 C           2.5206   -0.7247    2.9811 C.2     1  LIG1        0.3382
     15 C           1.5739    2.0765    0.6410 C.ar    1  LIG1       -0.0306
     16 H           1.4570    3.0189    0.6705 H       1  LIG1        0.0640
     17 O           5.3210    3.1469    5.7648 O.3     1  LIG1       -0.3752
     18 C           4.9980    1.7632    5.7857 C.3     1  LIG1        0.0711
     19 H           4.0152    1.6549    5.7362 H       1  LIG1        0.0583
     20 H           5.3079    1.3669    6.6376 H       1  LIG1        0.0583
     21 C           4.9153    3.7296    4.5188 C.3     1  LIG1        0.0711
     22 H           5.1798    4.6832    4.4977 H       1  LIG1        0.0583
     23 H           3.9301    3.6806    4.4355 H       1  LIG1        0.0583
     24 H           2.3719   -0.5570    4.7084 H       1  LIG1        0.2954
@<TRIPOS>BOND
     1     4     5    2
     2     8     5    2
     3     5     9    1
     4     7     6    1
     5     6     9   ar
     6     6    10   ar
     7     9    15   ar
     8     1    10    1
     9    10    11   ar
    10    15    16    1
    11    15    12   ar
    12    11    12   ar
    13    11    14    1
    14    12    13    1
    15     3    14    2
    16    14     2    1
    17     2    24    1
    18    23    21    1
    19    22    21    1
    20    21    17    1
    21    19    18    1
    22    17    18    1
    23    18    20    1
