@<TRIPOS>MOLECULE
?
 60 66 0 0 0
SMALL
GASTEIGER

@<TRIPOS>ATOM
      1 C           4.7400    4.5292    3.0611 C.2     1  LIG1       -0.0019
      2 C           5.1168    3.5056    2.2667 C.2     1  LIG1       -0.0025
      3 C           3.4406    4.5942    3.8036 C.ar    1  LIG1       -0.0167
      4 C           2.9493    3.5132    4.5434 C.ar    1  LIG1       -0.0540
      5 H           3.4588    2.7134    4.6047 H       1  LIG1        0.0624
      6 C           1.7225    3.6011    5.1889 C.ar    1  LIG1       -0.0612
      7 H           1.3976    2.8603    5.6874 H       1  LIG1        0.0618
      8 C           0.9725    4.7560    5.1114 C.ar    1  LIG1       -0.0617
      9 H           0.1257    4.8034    5.5384 H       1  LIG1        0.0618
     10 C           1.4569    5.8474    4.4090 C.ar    1  LIG1       -0.0612
     11 H           0.9500    6.6494    4.3653 H       1  LIG1        0.0618
     12 C           2.6869    5.7645    3.7682 C.ar    1  LIG1       -0.0540
     13 H           3.0199    6.5196    3.2972 H       1  LIG1        0.0624
     14 C           4.2767    2.3016    1.9580 C.ar    1  LIG1       -0.0167
     15 C           2.9231    2.4003    1.6426 C.ar    1  LIG1       -0.0540
     16 H           2.5102    3.2541    1.5961 H       1  LIG1        0.0624
     17 C           2.1768    1.2585    1.3964 C.ar    1  LIG1       -0.0612
     18 H           1.2509    1.3373    1.1984 H       1  LIG1        0.0618
     19 C           2.7609    0.0113    1.4357 C.ar    1  LIG1       -0.0617
     20 H           2.2371   -0.7669    1.2848 H       1  LIG1        0.0618
     21 C           4.1104   -0.1003    1.6945 C.ar    1  LIG1       -0.0612
     22 H           4.5252   -0.9550    1.6958 H       1  LIG1        0.0618
     23 C           4.8629    1.0389    1.9524 C.ar    1  LIG1       -0.0540
     24 H           5.7931    0.9549    2.1281 H       1  LIG1        0.0624
     25 C           6.4746    3.4706    1.6351 C.ar    1  LIG1       -0.0167
     26 C           7.6323    3.4817    2.3992 C.ar    1  LIG1       -0.0540
     27 H           7.5704    3.5600    3.3438 H       1  LIG1        0.0624
     28 C           8.8796    3.3793    1.8018 C.ar    1  LIG1       -0.0612
     29 H           9.6641    3.3763    2.3369 H       1  LIG1        0.0618
     30 C           8.9809    3.2814    0.4215 C.ar    1  LIG1       -0.0617
     31 H           9.8341    3.2150    0.0106 H       1  LIG1        0.0618
     32 C           7.8403    3.2815   -0.3521 C.ar    1  LIG1       -0.0612
     33 H           7.9095    3.2236   -1.2981 H       1  LIG1        0.0618
     34 C           6.5908    3.3664    0.2455 C.ar    1  LIG1       -0.0540
     35 H           5.8086    3.3541   -0.2939 H       1  LIG1        0.0624
     36 C           5.6155    5.7463    3.1777 C.ar    1  LIG1       -0.0090
     37 C           6.2779    6.0658    4.3847 C.ar    1  LIG1       -0.0090
     38 C           6.1571    5.2653    5.5699 C.ar    1  LIG1       -0.0528
     39 H           5.5801    4.5112    5.5623 H       1  LIG1        0.0624
     40 C           6.8468    5.5587    6.6987 C.ar    1  LIG1       -0.0534
     41 H           6.7301    5.0139    7.4683 H       1  LIG1        0.0624
     42 C           7.7504    6.6734    6.7605 C.ar    1  LIG1       -0.0167
     43 C           7.8856    7.4974    5.6122 C.ar    1  LIG1       -0.0025
     44 C           7.1429    7.2050    4.4282 C.ar    1  LIG1       -0.0019
     45 C           7.2964    8.0288    3.2782 C.ar    1  LIG1       -0.0167
     46 C           6.5976    7.7008    2.1217 C.ar    1  LIG1       -0.0534
     47 H           6.6710    8.2587    1.3567 H       1  LIG1        0.0624
     48 C           5.7941    6.5683    2.0688 C.ar    1  LIG1       -0.0528
     49 H           5.3561    6.3495    1.2543 H       1  LIG1        0.0624
     50 C           8.5199    6.9550    7.8942 C.ar    1  LIG1       -0.0540
     51 H           8.4397    6.4041    8.6641 H       1  LIG1        0.0624
     52 C           9.3970    8.0266    7.9075 C.ar    1  LIG1       -0.0606
     53 H           9.9146    8.2010    8.6853 H       1  LIG1        0.0618
     54 C           9.5268    8.8441    6.8008 C.ar    1  LIG1       -0.0540
     55 H          10.1309    9.5761    6.8286 H       1  LIG1        0.0624
     56 C           8.7821    8.6097    5.6407 C.ar    1  LIG1       -0.0167
     57 C           8.8931    9.4281    4.4686 C.ar    1  LIG1       -0.0534
     58 H           9.4817   10.1740    4.4757 H       1  LIG1        0.0624
     59 C           8.1789    9.1610    3.3539 C.ar    1  LIG1       -0.0534
     60 H           8.2616    9.7354    2.6016 H       1  LIG1        0.0624
@<TRIPOS>BOND
     1    33    32    1
     2    32    34   ar
     3    32    30   ar
     4    35    34    1
     5    31    30    1
     6    34    25   ar
     7    30    28   ar
     8    18    17    1
     9    49    48    1
    10    20    19    1
    11    47    46    1
    12    17    19   ar
    13    17    15   ar
    14    19    21   ar
    15    16    15    1
    16    25     2    1
    17    25    26   ar
    18    15    14   ar
    19    21    22    1
    20    21    23   ar
    21    28    29    1
    22    28    26   ar
    23    23    14   ar
    24    23    24    1
    25    14     2    1
    26    48    46   ar
    27    48    36   ar
    28    46    45   ar
    29     2     1    2
    30    26    27    1
    31    60    59    1
    32     1    36    1
    33     1     3    1
    34    36    37   ar
    35    45    59   ar
    36    45    44   ar
    37    13    12    1
    38    59    57   ar
    39    12     3   ar
    40    12    10   ar
    41     3     4   ar
    42    11    10    1
    43    37    44   ar
    44    37    38   ar
    45    10     8   ar
    46    44    43   ar
    47    57    58    1
    48    57    56   ar
    49     4     5    1
    50     4     6   ar
    51     8     6   ar
    52     8     9    1
    53     6     7    1
    54    39    38    1
    55    38    40   ar
    56    43    56   ar
    57    43    42   ar
    58    56    54   ar
    59    40    42   ar
    60    40    41    1
    61    42    50   ar
    62    54    55    1
    63    54    52   ar
    64    50    52   ar
    65    50    51    1
    66    52    53    1
