@<TRIPOS>MOLECULE
?
 96 103 0 0 0
SMALL
GASTEIGER

@<TRIPOS>ATOM
      1 S           4.9875    6.9074    8.5322 S.3     1  LIG1       -0.0868
      2 O           4.1778    3.5988   10.9327 O.2     1  LIG1       -0.2696
      3 O           5.5261    1.2858    9.3178 O.co2   1  LIG1       -0.2446
      4 O           6.6084    1.1056   11.2563 O.co2   1  LIG1       -0.2446
      5 N           5.7383    4.0308    9.3601 N.am    1  LIG1       -0.2555
      6 C           3.3859    4.7271    9.0284 C.ar    1  LIG1        0.0509
      7 C           3.4584    6.0082    8.4745 C.ar    1  LIG1        0.0249
      8 C           2.3325    6.5882    7.9030 C.ar    1  LIG1       -0.0473
      9 C           1.1383    5.8714    7.8387 C.ar    1  LIG1       -0.0607
     10 C           1.0660    4.5863    8.3429 C.ar    1  LIG1       -0.0610
     11 C           2.1764    4.0298    8.9448 C.ar    1  LIG1       -0.0485
     12 C           4.4548    4.0885    9.8409 C.2     1  LIG1        0.2524
     13 C           6.1798    4.4508    8.0707 C.ar    1  LIG1        0.0509
     14 C           5.9642    5.7476    7.6228 C.ar    1  LIG1        0.0342
     15 C           6.5685    6.1581    6.4221 C.ar    1  LIG1       -0.0462
     16 C           7.3281    5.2771    5.6857 C.ar    1  LIG1       -0.0606
     17 C           7.4870    3.9751    6.1027 C.ar    1  LIG1       -0.0599
     18 C           6.9000    3.5463    7.2975 C.ar    1  LIG1       -0.0392
     19 C           6.6425    3.2074   10.1765 C.3     1  LIG1        0.1215
     20 C           6.2003    1.7464   10.2327 C.2     1  LIG1        0.3734
     21 O           1.3768   -4.2279   11.9819 O.3     2  LIG2       -0.3717
     22 O          -1.6869    3.6069   13.9888 O.3     2  LIG2       -0.4914
     23 O           0.4999    4.7129   13.1607 O.3     2  LIG2       -0.4914
     24 O          -1.6278   -1.3691   14.2318 O.2     2  LIG2       -0.2752
     25 N           0.5076   -0.8057   13.6651 N.am    2  LIG2       -0.2665
     26 N           4.6331   -0.5310   11.7011 N.4     2  LIG2        0.2411
     27 C          -0.7040    1.3750   13.9824 C.ar    2  LIG2        0.0054
     28 C          -0.6335    2.7356   13.7686 C.ar    2  LIG2        0.1633
     29 C           0.5473    3.3430   13.2848 C.ar    2  LIG2        0.1619
     30 C           1.6365    2.5545   12.9556 C.ar    2  LIG2       -0.0106
     31 C           1.5588    1.1651   13.1273 C.ar    2  LIG2       -0.0088
     32 C           0.4002    0.6099   13.6494 C.ar    2  LIG2        0.0443
     33 C           2.5768    0.0899   12.8413 C.3     2  LIG2        0.0643
     34 C           1.7026   -1.2043   12.8938 C.3     2  LIG2        0.0518
     35 C          -0.5474   -1.6773   13.7424 C.2     2  LIG2        0.2225
     36 C          -0.2515   -3.0575   13.1872 C.3     2  LIG2        0.0511
     37 C           0.4940   -3.1032   11.8489 C.3     2  LIG2        0.0724
     38 C           2.1435   -4.5433   10.8153 C.3     2  LIG2        0.0667
     39 C           3.4434   -3.7939   10.8257 C.2     2  LIG2       -0.0542
     40 C           3.4722   -2.4567   10.6778 C.2     2  LIG2       -0.0233
     41 C           4.7510   -1.6904   10.7547 C.3     2  LIG2       -0.0094
     42 C           4.7151   -0.9293   13.1428 C.3     2  LIG2       -0.0302
     43 C           3.7263   -0.0065   13.8451 C.3     2  LIG2        0.0041
     44 C           1.1814   -1.7477   11.5723 C.3     2  LIG2        0.0127
     45 C           2.2231   -1.6604   10.4369 C.3     2  LIG2       -0.0029
     46 C           2.5870   -0.1838   10.2889 C.3     2  LIG2       -0.0017
     47 C           3.3342    0.2763   11.5127 C.3     2  LIG2       -0.0082
     48 C          -2.9606    2.9924   14.2415 C.3     2  LIG2        0.0790
     49 C           1.6649    5.3592   12.6356 C.3     2  LIG2        0.0790
     50 O          -2.7032   -4.5313   11.5004 O.2     3  LIG3       -0.2980
     51 C          -1.3762   -6.3966   10.8331 C.3     3  LIG3       -0.0063
     52 H          -0.8967   -5.7423   10.3214 H       3  LIG3        0.0306
     53 H          -1.7385   -7.0613   10.2431 H       3  LIG3        0.0306
     54 H          -0.7795   -6.8150   11.4586 H       3  LIG3        0.0306
     55 C          -3.3491   -6.6195   12.4271 C.3     3  LIG3       -0.0063
     56 H          -4.0216   -6.0890   12.8619 H       3  LIG3        0.0306
     57 H          -2.8058   -7.0535   13.0881 H       3  LIG3        0.0306
     58 H          -3.7708   -7.2815   11.8741 H       3  LIG3        0.0306
     59 C          -2.4870   -5.7319   11.5739 C.2     3  LIG3        0.1273
     60 H           5.4421    0.0912   11.4600 H       2  LIG2        0.2040
     61 H           2.4702    7.4601    7.5341 H       1  LIG1        0.0629
     62 H           0.3873    6.3340    7.4675 H       1  LIG1        0.0618
     63 H           0.2026    4.1184    8.2601 H       1  LIG1        0.0618
     64 H           2.1392    3.0888    9.3189 H       1  LIG1        0.0625
     65 H           6.4208    7.1030    6.0864 H       1  LIG1        0.0629
     66 H           7.8173    5.5651    4.9389 H       1  LIG1        0.0618
     67 H           8.0149    3.3364    5.5452 H       1  LIG1        0.0618
     68 H           6.9281    2.6978    7.6657 H       1  LIG1        0.0636
     69 H           6.6520    3.4837   11.0327 H       1  LIG1        0.0585
     70 H           7.6547    3.3886    9.7980 H       1  LIG1        0.0585
     71 H          -1.5180    0.9814   14.3140 H       2  LIG2        0.0674
     72 H           2.4957    2.9168   12.5957 H       2  LIG2        0.0659
     73 H           2.1899   -1.8768   13.4238 H       2  LIG2        0.0519
     74 H           0.3647   -3.4928   13.8260 H       2  LIG2        0.0384
     75 H          -1.1235   -3.5580   13.1857 H       2  LIG2        0.0384
     76 H          -0.1447   -3.3208   11.0845 H       2  LIG2        0.0604
     77 H           1.6262   -4.3530    9.9858 H       2  LIG2        0.0604
     78 H           2.2800   -5.5521   10.8553 H       2  LIG2        0.0604
     79 H           4.2412   -4.3661   11.1214 H       2  LIG2        0.0596
     80 H           5.5525   -2.2547   11.0667 H       2  LIG2        0.0864
     81 H           4.9086   -1.3268    9.8719 H       2  LIG2        0.0864
     82 H           4.4095   -1.8846   13.1458 H       2  LIG2        0.0815
     83 H           5.7690   -0.8471   13.3691 H       2  LIG2        0.0815
     84 H           4.0877    0.8211   13.9620 H       2  LIG2        0.0328
     85 H           3.4061   -0.3910   14.7872 H       2  LIG2        0.0328
     86 H           0.4475   -1.1717   11.2486 H       2  LIG2        0.0350
     87 H           1.7296   -1.9810    9.6634 H       2  LIG2        0.0353
     88 H           3.1089   -0.0182    9.5185 H       2  LIG2        0.0326
     89 H           1.8541    0.3910   10.2194 H       2  LIG2        0.0326
     90 H           3.6342    1.2212   11.4246 H       2  LIG2        0.0861
     91 H          -3.2714    2.3720   13.5598 H       2  LIG2        0.0660
     92 H          -2.9890    2.5154   15.2160 H       2  LIG2        0.0660
     93 H          -3.6054    3.7926   14.3879 H       2  LIG2        0.0660
     94 H           2.5623    5.1637   13.2389 H       2  LIG2        0.0660
     95 H           1.4391    6.3731   12.6475 H       2  LIG2        0.0660
     96 H           1.9360    5.0959   11.7262 H       2  LIG2        0.0660
@<TRIPOS>BOND
     1    66    16    1
     2    67    17    1
     3    16    17   ar
     4    16    15   ar
     5    65    15    1
     6    17    18   ar
     7    15    14   ar
     8    18    68    1
     9    18    13   ar
    10    62     9    1
    11    61     8    1
    12    14    13   ar
    13    14     1    1
    14     9     8   ar
    15     9    10   ar
    16     8     7   ar
    17    13     5    1
    18    63    10    1
    19    10    11   ar
    20     7     1    1
    21     7     6   ar
    22    11     6   ar
    23    11    64    1
    24     6    12    1
    25     3    20   ar
    26     5    12   am
    27     5    19    1
    28    88    46    1
    29    87    45    1
    30    70    19    1
    31    12     2    2
    32    81    41    1
    33    77    38    1
    34    19    20    1
    35    19    69    1
    36    89    46    1
    37    20     4   ar
    38    53    51    1
    39    46    45    1
    40    46    47    1
    41    52    51    1
    42    45    40    1
    43    45    44    1
    44    40    41    1
    45    40    39    2
    46    41    80    1
    47    41    26    1
    48    38    39    1
    49    38    78    1
    50    38    21    1
    51    39    79    1
    52    51    54    1
    53    51    59    1
    54    76    37    1
    55    86    44    1
    56    90    47    1
    57    60    26    1
    58    50    59    2
    59    47    26    1
    60    47    33    1
    61    44    37    1
    62    44    34    1
    63    59    55    1
    64    26    42    1
    65    96    49    1
    66    37    21    1
    67    37    36    1
    68    58    55    1
    69    55    56    1
    70    55    57    1
    71    72    30    1
    72    49    95    1
    73    49    23    1
    74    49    94    1
    75    33    34    1
    76    33    31    1
    77    33    43    1
    78    34    73    1
    79    34    25    1
    80    30    31   ar
    81    30    29   ar
    82    31    32   ar
    83    42    82    1
    84    42    83    1
    85    42    43    1
    86    23    29    1
    87    75    36    1
    88    36    35    1
    89    36    74    1
    90    29    28   ar
    91    91    48    1
    92    32    25    1
    93    32    27   ar
    94    25    35   am
    95    35    24    2
    96    28    27   ar
    97    28    22    1
    98    43    84    1
    99    43    85    1
   100    27    71    1
   101    22    48    1
   102    48    93    1
   103    48    92    1
