@<TRIPOS>MOLECULE
?
 29 29 0 0 0
SMALL
GASTEIGER

@<TRIPOS>ATOM
      1 S           5.4216    2.3483    4.7546 S.2     1  LIG1       -0.0185
      2 S          -1.4079    2.4953    0.3211 S.2     1  LIG1       -0.0185
      3 N           1.9563    4.4663    2.6839 N.ar    1  LIG1       -0.2171
      4 N           2.8938    2.2527    3.9411 N.am    1  LIG1       -0.3294
      5 H           2.1562    2.6596    3.6853 H       1  LIG1        0.1474
      6 N           1.1121    2.4173    1.1489 N.am    1  LIG1       -0.3294
      7 H           1.8315    2.8237    1.4528 H       1  LIG1        0.1474
      8 N           3.8600    4.3575    4.0410 N.am    1  LIG1       -0.2818
      9 H           4.5221    4.8242    4.3852 H       1  LIG1        0.1552
     10 N           0.0419    4.4663    1.3251 N.am    1  LIG1       -0.2818
     11 H          -0.6270    4.9495    1.0192 H       1  LIG1        0.1552
     12 C           3.9617    2.9976    4.2008 C.2     1  LIG1        0.1354
     13 C           0.8497    6.5477    2.2325 C.ar    1  LIG1       -0.0214
     14 H           0.1217    7.0184    1.8453 H       1  LIG1        0.0652
     15 C           0.9794    5.1698    2.0923 C.ar    1  LIG1        0.1263
     16 C           2.8681    6.5012    3.5537 C.ar    1  LIG1       -0.0214
     17 H           3.5556    6.9460    4.0347 H       1  LIG1        0.0652
     18 C           2.8622    5.1169    3.4135 C.ar    1  LIG1        0.1263
     19 C           0.0080    3.1394    0.9771 C.2     1  LIG1        0.1354
     20 C           1.1963    0.9983    0.8628 C.3     1  LIG1       -0.0009
     21 H           0.9220    0.8345   -0.0636 H       1  LIG1        0.0426
     22 H           0.6039    0.5064    1.4700 H       1  LIG1        0.0426
     23 H           2.1187    0.6934    0.9890 H       1  LIG1        0.0426
     24 C           2.8720    0.8079    4.0541 C.3     1  LIG1       -0.0009
     25 H           3.3632    0.4139    3.3024 H       1  LIG1        0.0426
     26 H           1.9446    0.4929    4.0390 H       1  LIG1        0.0426
     27 H           3.2944    0.5395    4.8965 H       1  LIG1        0.0426
     28 C           1.8306    7.2039    2.9616 C.ar    1  LIG1       -0.0553
     29 H           1.7898    8.1477    3.0576 H       1  LIG1        0.0620
@<TRIPOS>BOND
     1    21    20    1
     2     2    19    2
     3    20    23    1
     4    20     6    1
     5    20    22    1
     6    19     6    1
     7    19    10    1
     8    11    10    1
     9     6     7    1
    10    10    15    1
    11    14    13    1
    12    15    13   ar
    13    15     3   ar
    14    13    28   ar
    15     3    18   ar
    16    28    29    1
    17    28    16   ar
    18    25    24    1
    19    18    16   ar
    20    18     8    1
    21    16    17    1
    22     5     4    1
    23     4    24    1
    24     4    12    1
    25    26    24    1
    26     8    12    1
    27     8     9    1
    28    24    27    1
    29    12     1    2
