@<TRIPOS>MOLECULE
1,4-DIIODOTETRAFLUOROBENZENE - 1,4-DITHIANE 2/1
 19 18 0 0 0
SMALL
GASTEIGER

@<TRIPOS>ATOM
      1 I          -1.0748    5.3550    3.6445 I       1  LIG1       -0.0377
      2 I           2.8435    7.3302   -1.7988 I       1  LIG1       -0.0377
      3 S           3.4745    3.5997    5.9020 S.3     1  LIG1       -0.1591
      4 F          -1.4733    5.0798    0.4789 F       1  LIG1       -0.2013
      5 F           0.0199    5.8298   -1.5969 F       1  LIG1       -0.2013
      6 F           3.2164    7.6422    1.3716 F       1  LIG1       -0.2013
      7 F           1.7285    6.8692    3.4411 F       1  LIG1       -0.2013
      8 C           1.3012    6.5907    2.2005 C.ar    1  LIG1        0.1754
      9 C           0.0936    5.9394    2.0244 C.ar    1  LIG1        0.0894
     10 C          -0.3178    5.7028    0.7178 C.ar    1  LIG1        0.1754
     11 C           0.4586    6.1129   -0.3552 C.ar    1  LIG1        0.1754
     12 C           1.6681    6.7595   -0.1802 C.ar    1  LIG1        0.0894
     13 C           2.0739    6.9908    1.1348 C.ar    1  LIG1        0.1754
     14 C           2.3379    3.1396    4.5696 C.3     1  LIG1        0.0027
     15 H           1.6093    3.7787    4.5455 H       1  LIG1        0.0384
     16 H           2.8085    3.1957    3.7240 H       1  LIG1        0.0384
     17 C           4.6975    2.2731    5.7600 C.3     1  LIG1        0.0027
     18 H           5.1306    2.3405    4.8945 H       1  LIG1        0.0384
     19 H           5.3771    2.4030    6.4400 H       1  LIG1        0.0384
@<TRIPOS>BOND
     1     2    12    1
     2     5    11    1
     3    11    12   ar
     4    11    10   ar
     5    12    13   ar
     6     4    10    1
     7    10     9   ar
     8    13     6    1
     9    13     8   ar
    10     9     8   ar
    11     9     1    1
    12     8     7    1
    13    16    14    1
    14    15    14    1
    15    14     3    1
    16    18    17    1
    17    17     3    1
    18    17    19    1
