@<TRIPOS>MOLECULE
C10 H12 Br4
 26 28 0 0 0
SMALL
GASTEIGER

@<TRIPOS>ATOM
      1 BR          8.5779    5.2298    7.8113 Br      1  LIG1       -0.0866
      2 BR          7.7662    2.7643    9.8901 Br      1  LIG1       -0.0866
      3 BR          6.8330   -1.3635    4.8682 Br      1  LIG1       -0.0866
      4 BR          9.3240    0.5610    3.5806 Br      1  LIG1       -0.0866
      5 C           7.5327    3.5132    5.7760 C.3     1  LIG1       -0.0234
      6 C           6.1163    3.9852    6.1160 C.3     1  LIG1       -0.0486
      7 C           5.5619    3.1682    7.3065 C.3     1  LIG1       -0.0486
      8 C           6.4013    1.8882    7.5259 C.3     1  LIG1       -0.0234
      9 C           6.5204    1.2255    6.1428 C.3     1  LIG1       -0.0195
     10 C           7.3685    2.1106    5.1923 C.3     1  LIG1       -0.0195
     11 C           8.3913    3.4288    7.0519 C.3     1  LIG1        0.0306
     12 C           7.8039    2.3385    7.9621 C.3     1  LIG1        0.0306
     13 C           7.5452    0.0817    5.9466 C.3     1  LIG1        0.0309
     14 C           8.4646    1.0431    5.2411 C.3     1  LIG1        0.0309
     15 H           7.9343    4.0915    5.1387 H       1  LIG1        0.0315
     16 H           6.1428    4.9067    6.3524 H       1  LIG1        0.0268
     17 H           5.5530    3.8663    5.3629 H       1  LIG1        0.0268
     18 H           5.5939    3.7047    8.0913 H       1  LIG1        0.0268
     19 H           4.6629    2.9277    7.1238 H       1  LIG1        0.0268
     20 H           6.0006    1.3100    8.1644 H       1  LIG1        0.0315
     21 H           5.6712    1.0131    5.7724 H       1  LIG1        0.0318
     22 H           6.9737    2.1460    4.3308 H       1  LIG1        0.0318
     23 H           9.2577    3.1401    6.7911 H       1  LIG1        0.0431
     24 H           8.3658    1.5778    7.8683 H       1  LIG1        0.0431
     25 H           7.9079   -0.2206    6.7704 H       1  LIG1        0.0432
     26 H           9.1345    1.3281    5.8528 H       1  LIG1        0.0432
@<TRIPOS>BOND
     1     4    14    1
     2    22    10    1
     3     3    13    1
     4    15     5    1
     5    10    14    1
     6    10     5    1
     7    10     9    1
     8    14    26    1
     9    14    13    1
    10    17     6    1
    11    21     9    1
    12     5     6    1
    13     5    11    1
    14    13     9    1
    15    13    25    1
    16     6    16    1
    17     6     7    1
    18     9     8    1
    19    23    11    1
    20    11     1    1
    21    11    12    1
    22    19     7    1
    23     7     8    1
    24     7    18    1
    25     8    12    1
    26     8    20    1
    27    24    12    1
    28    12     2    1
