@<TRIPOS>MOLECULE
Isonicotinamide
 45 45 0 0 0
SMALL
GASTEIGER

@<TRIPOS>ATOM
      1 C           2.4973    2.4089    6.4705 C.ar    1  LIG1        0.0393
      2 C           2.9940    0.4887    7.7987 C.ar    1  LIG1        0.0283
      3 H           3.3761    0.1256    8.5886 H       1  LIG1        0.0830
      4 C           3.0394    1.8706    7.6250 C.ar    1  LIG1       -0.0315
      5 H           3.4332    2.4305    8.2838 H       1  LIG1        0.0640
      6 N           2.4449   -0.3563    6.9204 N.ar    1  LIG1       -0.2632
      7 C           2.4837    3.8924    6.2012 C.2     1  LIG1        0.2416
      8 C           1.9387    1.5411    5.5370 C.ar    1  LIG1       -0.0315
      9 H           1.5716    1.8754    4.7271 H       1  LIG1        0.0640
     10 C           1.9255    0.1799    5.8072 C.ar    1  LIG1        0.0283
     11 H           1.5280   -0.4015    5.1703 H       1  LIG1        0.0830
     12 O           2.4415    4.3131    5.0333 O.2     1  LIG1       -0.2704
     13 N           2.5074    4.6891    7.2640 N.am    1  LIG1       -0.3253
     14 C           9.8986    1.6203    7.2991 C.ar    2  LIG2        0.0393
     15 C           9.2866    2.1626    6.1682 C.ar    2  LIG2       -0.0315
     16 H           8.8840    1.5995    5.5169 H       2  LIG2        0.0640
     17 C           9.2806    3.5365    6.0167 C.ar    2  LIG2        0.0283
     18 H           8.8646    3.8988    5.2430 H       2  LIG2        0.0830
     19 N           9.8261    4.3859    6.8947 N.ar    2  LIG2       -0.2632
     20 C          10.4120    3.8508    7.9768 C.ar    2  LIG2        0.0283
     21 H          10.8141    4.4379    8.6065 H       2  LIG2        0.0830
     22 C          10.4625    2.4929    8.2252 C.ar    2  LIG2       -0.0315
     23 H          10.8751    2.1610    9.0139 H       2  LIG2        0.0640
     24 C           9.9293    0.1240    7.5653 C.2     2  LIG2        0.2416
     25 O          10.0374   -0.2827    8.7256 O.2     2  LIG2       -0.2704
     26 N           9.8127   -0.6703    6.5098 N.am    2  LIG2       -0.3253
     27 N           6.4121    8.3799    4.5932 N.ar    3  LIG3       -0.2632
     28 C           5.6736    7.8632    5.5908 C.ar    3  LIG3        0.0283
     29 H           5.2196    8.4647    6.1693 H       3  LIG3        0.0830
     30 C           5.5361    6.5028    5.8252 C.ar    3  LIG3       -0.0315
     31 H           5.0098    6.1877    6.5498 H       3  LIG3        0.0640
     32 C           7.0468    7.5073    3.8024 C.ar    3  LIG3        0.0283
     33 H           7.5919    7.8512    3.1046 H       3  LIG3        0.0830
     34 C           6.9566    6.1270    3.9408 C.ar    3  LIG3       -0.0315
     35 H           7.4124    5.5495    3.3396 H       3  LIG3        0.0640
     36 C           6.1863    5.6079    4.9755 C.ar    3  LIG3        0.0393
     37 N           6.1875    3.3380    4.1590 N.am    3  LIG3       -0.3253
     38 C           6.0519    4.1228    5.2230 C.2     3  LIG3        0.2416
     39 O           5.8563    3.7013    6.3631 O.2     3  LIG3       -0.2704
     40 H           9.7721   -0.3839    5.6673 H       2  LIG2        0.1453
     41 H           9.7709   -1.5675    6.6235 H       2  LIG2        0.1453
     42 H           2.4077    5.5023    7.1613 H       1  LIG1        0.1453
     43 H           2.3844    4.3507    8.1175 H       1  LIG1        0.1453
     44 H           6.2017    3.6949    3.3466 H       3  LIG3        0.1453
     45 H           6.1070    2.4393    4.3725 H       3  LIG3        0.1453
@<TRIPOS>BOND
     1    33    32    1
     2    35    34    1
     3    44    37    1
     4    32    34   ar
     5    32    27   ar
     6    34    36   ar
     7    37    45    1
     8    37    38   am
     9    27    28   ar
    10     9     8    1
    11    36    38    1
    12    36    30   ar
    13    12     7    2
    14    11    10    1
    15    38    39    2
    16    18    17    1
    17    16    15    1
    18     8    10   ar
    19     8     1   ar
    20    28    30   ar
    21    28    29    1
    22    40    26    1
    23    10     6   ar
    24    30    31    1
    25    17    15   ar
    26    17    19   ar
    27    15    14   ar
    28     7     1    1
    29     7    13   am
    30     1     4   ar
    31    26    41    1
    32    26    24   am
    33    19    20   ar
    34     6     2   ar
    35    42    13    1
    36    13    43    1
    37    14    24    1
    38    14    22   ar
    39    24    25    2
    40     4     2   ar
    41     4     5    1
    42     2     3    1
    43    20    22   ar
    44    20    21    1
    45    22    23    1
