@<TRIPOS>MOLECULE
?
 114 118 0 0 0
SMALL
GASTEIGER

@<TRIPOS>ATOM
      1 C           3.1537   10.2081    2.4742 C.ar    1  LIG1       -0.0532
      2 H           3.1420   11.0035    2.9934 H       1  LIG1        0.0624
      3 C           4.2813    9.8707    1.7839 C.ar    1  LIG1       -0.0611
      4 H           5.0441   10.4361    1.8241 H       1  LIG1        0.0618
      5 C           4.3274    8.6857    1.0046 C.ar    1  LIG1       -0.0612
      6 H           5.1217    8.4577    0.5360 H       1  LIG1        0.0618
      7 C           3.2381    7.8744    0.9263 C.ar    1  LIG1       -0.0540
      8 H           3.2805    7.0855    0.3989 H       1  LIG1        0.0624
      9 C           2.0289    8.1892    1.6246 C.ar    1  LIG1       -0.0165
     10 C          -1.4500    6.8806    2.1012 C.ar    1  LIG1       -0.0540
     11 H          -1.4244    6.0991    1.5622 H       1  LIG1        0.0624
     12 C          -2.5980    7.2043    2.7565 C.ar    1  LIG1       -0.0612
     13 H          -3.3653    6.6512    2.6706 H       1  LIG1        0.0618
     14 C          -2.6506    8.3697    3.5702 C.ar    1  LIG1       -0.0611
     15 H          -3.4550    8.5867    4.0288 H       1  LIG1        0.0618
     16 C          -1.5616    9.1774    3.7017 C.ar    1  LIG1       -0.0532
     17 H          -1.6133    9.9491    4.2541 H       1  LIG1        0.0624
     18 C          -0.3402    8.8785    3.0187 C.ar    1  LIG1       -0.0033
     19 C           0.8004    9.6967    3.1067 C.ar    1  LIG1        0.0744
     20 C           1.9875    9.3793    2.4258 C.ar    1  LIG1       -0.0033
     21 C           0.8974    7.3806    1.5357 C.ar    1  LIG1       -0.0463
     22 H           0.9305    6.5944    1.0019 H       1  LIG1        0.0630
     23 C          -0.2841    7.6974    2.2105 C.ar    1  LIG1       -0.0165
     24 C           0.7407   10.9615    3.9128 C.2     1  LIG1        0.3409
     25 O           1.3359   11.1355    4.9451 O.2     1  LIG1       -0.2449
     26 O          -0.0519   11.8435    3.2906 O.3     1  LIG1       -0.4546
     27 C          -0.2831   13.2292    3.8007 C.3     1  LIG1        0.1138
     28 C           1.0511   13.9647    3.9113 C.3     1  LIG1       -0.0131
     29 H           0.8700   14.8911    4.2085 H       1  LIG1        0.0304
     30 H           1.5886   13.5259    4.6165 H       1  LIG1        0.0304
     31 C           1.8968   14.0300    2.6408 C.3     1  LIG1       -0.0523
     32 H           1.9057   13.1415    2.2047 H       1  LIG1        0.0264
     33 H           1.4940   14.6774    2.0098 H       1  LIG1        0.0264
     34 C           3.3210   14.4521    2.9575 C.3     1  LIG1       -0.0652
     35 H           3.8150   14.5858    2.1225 H       1  LIG1        0.0230
     36 H           3.7580   13.7534    3.4868 H       1  LIG1        0.0230
     37 H           3.3085   15.2893    3.4654 H       1  LIG1        0.0230
     38 C          -0.9974   13.1334    5.1552 C.3     1  LIG1       -0.0131
     39 H          -1.7951   12.5561    5.0550 H       1  LIG1        0.0304
     40 H          -0.3912   12.6962    5.8042 H       1  LIG1        0.0304
     41 C          -1.4370   14.4811    5.7262 C.3     1  LIG1       -0.0523
     42 H          -0.6368   15.0298    5.9229 H       1  LIG1        0.0264
     43 H          -1.9764   14.9618    5.0489 H       1  LIG1        0.0264
     44 C          -2.2554   14.3132    6.9945 C.3     1  LIG1       -0.0652
     45 H          -2.4637   15.1949    7.3694 H       1  LIG1        0.0230
     46 H          -1.7418   13.7950    7.6495 H       1  LIG1        0.0230
     47 H          -3.0891   13.8422    6.7847 H       1  LIG1        0.0230
     48 C          -1.1619   13.8099    2.6895 C.3     1  LIG1       -0.0131
     49 H          -1.2745   14.7787    2.8564 H       1  LIG1        0.0304
     50 H          -0.6826   13.7104    1.8302 H       1  LIG1        0.0304
     51 C          -2.5490   13.1830    2.5418 C.3     1  LIG1       -0.0523
     52 H          -2.4692   12.1981    2.6006 H       1  LIG1        0.0264
     53 H          -3.1250   13.4870    3.2888 H       1  LIG1        0.0264
     54 C          -3.2046   13.5565    1.2178 C.3     1  LIG1       -0.0652
     55 H          -4.0870   13.1332    1.1602 H       1  LIG1        0.0230
     56 H          -2.6430   13.2470    0.4751 H       1  LIG1        0.0230
     57 H          -3.3060   14.5303    1.1663 H       1  LIG1        0.0230
     58 C           6.3711   10.9886   10.5254 C.ar    2  LIG2       -0.0532
     59 H           5.9707   11.2297    9.6990 H       2  LIG2        0.0624
     60 C           7.7195   10.8494   10.6000 C.ar    2  LIG2       -0.0611
     61 H           8.2505   10.9994    9.8269 H       2  LIG2        0.0618
     62 C           8.3451   10.4826   11.8199 C.ar    2  LIG2       -0.0612
     63 H           9.2884   10.3764   11.8519 H       2  LIG2        0.0618
     64 C           7.6039   10.2824   12.9406 C.ar    2  LIG2       -0.0540
     65 H           8.0362   10.0435   13.7521 H       2  LIG2        0.0624
     66 C           6.1810   10.4272   12.9153 C.ar    2  LIG2       -0.0165
     67 C           3.2358   10.2845   15.2284 C.ar    2  LIG2       -0.0540
     68 H           3.6520   10.0226   16.0421 H       2  LIG2        0.0624
     69 C           1.9025   10.5321   15.2090 C.ar    2  LIG2       -0.0612
     70 H           1.3973   10.4666   16.0117 H       2  LIG2        0.0618
     71 C           1.2588   10.8894   13.9967 C.ar    2  LIG2       -0.0611
     72 H           0.3256   11.0660   13.9957 H       2  LIG2        0.0618
     73 C           1.9614   10.9830   12.8313 C.ar    2  LIG2       -0.0532
     74 H           1.5076   11.2033   12.0255 H       2  LIG2        0.0624
     75 C           4.1463   10.9057   11.6388 C.ar    2  LIG2        0.0744
     76 C           3.3713   10.7530   12.8060 C.ar    2  LIG2       -0.0033
     77 C           5.5430   10.7762   11.6762 C.ar    2  LIG2       -0.0033
     78 C           5.4080   10.2438   14.0603 C.ar    2  LIG2       -0.0463
     79 H           5.8343    9.9977   14.8728 H       2  LIG2        0.0630
     80 C           4.0249   10.4122   14.0405 C.ar    2  LIG2       -0.0165
     81 C           3.4263   11.1824   10.3452 C.2     2  LIG2        0.3409
     82 O           2.6343   10.4095    9.8610 O.2     2  LIG2       -0.2449
     83 O           3.7673   12.3718    9.8473 O.3     2  LIG2       -0.4546
     84 C           3.0877   12.9437    8.6429 C.3     2  LIG2        0.1138
     85 C           3.8508   14.2622    8.4897 C.3     2  LIG2       -0.0131
     86 H           3.8232   14.7426    9.3549 H       2  LIG2        0.0304
     87 H           4.7993   14.0531    8.2951 H       2  LIG2        0.0304
     88 C           3.3323   15.1992    7.4026 C.3     2  LIG2       -0.0523
     89 H           3.4075   14.7523    6.5228 H       2  LIG2        0.0264
     90 H           2.3753   15.3919    7.5673 H       2  LIG2        0.0264
     91 C           4.1057   16.4980    7.3712 C.3     2  LIG2       -0.0652
     92 H           3.7780   17.0554    6.6355 H       2  LIG2        0.0230
     93 H           5.0579   16.3076    7.2384 H       2  LIG2        0.0230
     94 H           3.9832   16.9722    8.2190 H       2  LIG2        0.0230
     95 C           3.2412   12.0222    7.4242 C.3     2  LIG2       -0.0131
     96 H           2.5912   11.2810    7.5125 H       2  LIG2        0.0304
     97 H           2.9941   12.5352    6.6142 H       2  LIG2        0.0304
     98 C           4.6250   11.4195    7.2028 C.3     2  LIG2       -0.0523
     99 H           5.3104   12.1176    7.3572 H       2  LIG2        0.0264
    100 H           4.7732   10.6983    7.8658 H       2  LIG2        0.0264
    101 C           4.7998   10.8532    5.8057 C.3     2  LIG2       -0.0652
    102 H           5.6829   10.4347    5.7311 H       2  LIG2        0.0230
    103 H           4.7238   11.5765    5.1494 H       2  LIG2        0.0230
    104 H           4.1058   10.1822    5.6367 H       2  LIG2        0.0230
    105 C           1.6089   13.1597    8.9763 C.3     2  LIG2       -0.0131
    106 H           1.1596   13.5370    8.1794 H       2  LIG2        0.0304
    107 H           1.1978   12.2786    9.1600 H       2  LIG2        0.0304
    108 C           1.3346   14.0792   10.1649 C.3     2  LIG2       -0.0523
    109 H           1.9122   13.8103   10.9231 H       2  LIG2        0.0264
    110 H           1.5705   15.0076    9.9182 H       2  LIG2        0.0264
    111 C          -0.1185   14.0356   10.6080 C.3     2  LIG2       -0.0652
    112 H          -0.2507   14.6552   11.3556 H       2  LIG2        0.0230
    113 H          -0.3455   13.1263   10.8927 H       2  LIG2        0.0230
    114 H          -0.6963   14.2973    9.8604 H       2  LIG2        0.0230
@<TRIPOS>BOND
     1     8     7    1
     2    56    54    1
     3     6     5    1
     4     7     5   ar
     5     7     9   ar
     6    22    21    1
     7     5     3   ar
     8    55    54    1
     9    57    54    1
    10    54    51    1
    11    21     9   ar
    12    21    23   ar
    13    11    10    1
    14     9    20   ar
    15     3     4    1
    16     3     1   ar
    17    50    48    1
    18    33    31    1
    19    10    23   ar
    20    10    12   ar
    21    35    34    1
    22    32    31    1
    23    23    18   ar
    24    20     1   ar
    25    20    19   ar
    26     1     2    1
    27    51    52    1
    28    51    48    1
    29    51    53    1
    30    31    34    1
    31    31    28    1
    32    13    12    1
    33    48    49    1
    34    48    27    1
    35    12    14   ar
    36    34    37    1
    37    34    36    1
    38    18    19   ar
    39    18    16   ar
    40    19    24    1
    41    26    27    1
    42    26    24    1
    43    14    16   ar
    44    14    15    1
    45    16    17    1
    46    27    28    1
    47    27    38    1
    48    28    29    1
    49    28    30    1
    50    24    25    2
    51    43    41    1
    52    39    38    1
    53   103   101    1
    54    38    41    1
    55    38    40    1
    56   104   101    1
    57    41    42    1
    58    41    44    1
    59   102   101    1
    60   101    98    1
    61    89    88    1
    62    97    95    1
    63    92    91    1
    64    47    44    1
    65    44    45    1
    66    44    46    1
    67    98    99    1
    68    98    95    1
    69    98   100    1
    70    93    91    1
    71    91    88    1
    72    91    94    1
    73    88    90    1
    74    88    85    1
    75    95    96    1
    76    95    84    1
    77   106   105    1
    78    87    85    1
    79    85    84    1
    80    85    86    1
    81    84   105    1
    82    84    83    1
    83   105   107    1
    84   105   108    1
    85    59    58    1
    86    61    60    1
    87    83    81    1
    88   114   111    1
    89    82    81    2
    90   110   108    1
    91   108   111    1
    92   108   109    1
    93    81    75    1
    94    58    60   ar
    95    58    77   ar
    96    60    62   ar
    97   111   113    1
    98   111   112    1
    99    75    77   ar
   100    75    76   ar
   101    77    66   ar
   102    62    63    1
   103    62    64   ar
   104    74    73    1
   105    76    73   ar
   106    76    80   ar
   107    73    71   ar
   108    66    64   ar
   109    66    78   ar
   110    64    65    1
   111    72    71    1
   112    71    69   ar
   113    80    78   ar
   114    80    67   ar
   115    78    79    1
   116    69    67   ar
   117    69    70    1
   118    67    68    1
