@<TRIPOS>MOLECULE
azacyclopentane
 14 14 0 0 0
SMALL
GASTEIGER

@<TRIPOS>ATOM
      1 N           2.6796    5.3125    1.9472 N.3     1  LIG1       -0.3160
      2 H           3.1209    4.6873    2.3911 H       1  LIG1        0.1219
      3 C           2.4854    4.8295    0.5735 C.3     1  LIG1       -0.0041
      4 H           3.3113    4.4529    0.2231 H       1  LIG1        0.0424
      5 H           2.2162    5.5883   -0.0070 H       1  LIG1        0.0424
      6 C           1.3599    3.7797    0.6265 C.3     1  LIG1       -0.0393
      7 H           0.8016    3.7863   -0.1613 H       1  LIG1        0.0278
      8 H           1.7369    2.8905    0.6463 H       1  LIG1        0.0278
      9 C           0.5798    4.1173    1.9083 C.3     1  LIG1       -0.0393
     10 H           0.6233    3.3696    2.5425 H       1  LIG1        0.0278
     11 H          -0.3812    4.2863    1.7308 H       1  LIG1        0.0278
     12 C           1.3152    5.3302    2.4964 C.3     1  LIG1       -0.0041
     13 H           0.8606    6.1560    2.2118 H       1  LIG1        0.0424
     14 H           1.3412    5.3383    3.4806 H       1  LIG1        0.0424
@<TRIPOS>BOND
     1     7     6    1
     2     5     3    1
     3     4     3    1
     4     3     6    1
     5     3     1    1
     6     6     8    1
     7     6     9    1
     8    11     9    1
     9     9    12    1
    10     9    10    1
    11     1     2    1
    12     1    12    1
    13    13    12    1
    14    12    14    1
