@<TRIPOS>MOLECULE
?
 19 20 0 0 0
SMALL
GASTEIGER

@<TRIPOS>ATOM
      1 O           3.9066    2.0030    0.6647 O.2     1  LIG1       -0.2921
      2 O          -0.6269    1.2679    4.2782 O.2     1  LIG1       -0.2921
      3 C           2.7425    0.6740    3.3510 C.2     1  LIG1       -0.0702
      4 H           3.5890    0.6673    3.7353 H       1  LIG1        0.0580
      5 C           2.6173    0.4050    1.8808 C.3     1  LIG1        0.0409
      6 H           3.3008   -0.2426    1.6090 H       1  LIG1        0.0424
      7 C           2.8138    1.6952    1.1114 C.2     1  LIG1        0.1626
      8 C           0.4412    2.1799    1.4227 C.2     1  LIG1       -0.0702
      9 H          -0.2739    2.7680    1.3364 H       1  LIG1        0.0580
     10 C           0.3390    1.0199    3.5785 C.2     1  LIG1        0.1626
     11 C           0.2060    0.8485    2.0746 C.3     1  LIG1        0.0409
     12 H          -0.6970    0.5340    1.8597 H       1  LIG1        0.0424
     13 C           1.6311    2.5494    0.9657 C.2     1  LIG1       -0.0219
     14 H           1.7170    3.3723    0.5407 H       1  LIG1        0.0649
     15 C           1.6987    0.9203    4.1217 C.2     1  LIG1       -0.0219
     16 H           1.8295    1.0342    5.0354 H       1  LIG1        0.0649
     17 C           1.2279   -0.1653    1.5810 C.3     1  LIG1       -0.0263
     18 H           1.1228   -0.3108    0.6281 H       1  LIG1        0.0285
     19 H           1.1073   -1.0125    2.0375 H       1  LIG1        0.0285
@<TRIPOS>BOND
     1    14    13    1
     2    18    17    1
     3     1     7    2
     4    13     7    1
     5    13     8    2
     6     7     5    1
     7     9     8    1
     8     8    11    1
     9    17     5    1
    10    17    19    1
    11    17    11    1
    12     6     5    1
    13    12    11    1
    14     5     3    1
    15    11    10    1
    16     3     4    1
    17     3    15    2
    18    10    15    1
    19    10     2    2
    20    15    16    1
