@<TRIPOS>MOLECULE
?
 85 87 0 0 0
SMALL
GASTEIGER

@<TRIPOS>ATOM
      1 C           5.8525    4.1516    6.3824 C.ar    1  LIG1        0.1486
      2 C           5.8872    2.9263    7.0407 C.ar    1  LIG1        0.0556
      3 C           5.9567    2.8987    8.4270 C.ar    1  LIG1       -0.0444
      4 H           5.9654    2.0837    8.8745 H       1  LIG1        0.0630
      5 C           6.0137    4.0718    9.1390 C.ar    1  LIG1       -0.0594
      6 H           6.0797    4.0454   10.0655 H       1  LIG1        0.0618
      7 C           5.9731    5.2855    8.4941 C.ar    1  LIG1       -0.0444
      8 H           6.0124    6.0736    8.9868 H       1  LIG1        0.0630
      9 C           5.8745    5.3417    7.1122 C.ar    1  LIG1        0.0556
     10 C           7.0550    4.2298    4.3617 C.3     1  LIG1        0.1858
     11 H           7.5613    3.4383    4.5997 H       1  LIG1        0.0815
     12 H           7.5517    5.0087    4.6578 H       1  LIG1        0.0815
     13 C           6.8677    4.2837    2.8789 C.2     1  LIG1        0.3427
     14 C           4.6715    7.0022    5.1759 C.ar    1  LIG1        0.0556
     15 C           4.9661    7.3606    3.8638 C.ar    1  LIG1       -0.0444
     16 H           5.8531    7.4769    3.6092 H       1  LIG1        0.0630
     17 C           3.9711    7.5465    2.9405 C.ar    1  LIG1       -0.0594
     18 H           4.1813    7.8132    2.0753 H       1  LIG1        0.0618
     19 C           2.6645    7.3374    3.2976 C.ar    1  LIG1       -0.0444
     20 H           1.9919    7.4415    2.6628 H       1  LIG1        0.0630
     21 C           2.3340    6.9725    4.5947 C.ar    1  LIG1        0.0556
     22 C           3.3426    6.8454    5.5489 C.ar    1  LIG1        0.1486
     23 C           3.1319    7.5834    7.7912 C.3     1  LIG1        0.1858
     24 H           3.1584    8.4352    7.3286 H       1  LIG1        0.0815
     25 H           3.9583    7.4811    8.2870 H       1  LIG1        0.0815
     26 C           1.9803    7.5557    8.7247 C.2     1  LIG1        0.3427
     27 C           0.3624    5.2401    5.6762 C.ar    1  LIG1        0.0556
     28 C           0.7903    4.0825    5.0372 C.ar    1  LIG1        0.1486
     29 C           0.4368    2.8286    5.5465 C.ar    1  LIG1        0.0556
     30 C          -0.3497    2.7665    6.6932 C.ar    1  LIG1       -0.0444
     31 H          -0.5779    1.9392    7.0499 H       1  LIG1        0.0630
     32 C          -0.7894    3.9123    7.3003 C.ar    1  LIG1       -0.0594
     33 H          -1.3286    3.8556    8.0564 H       1  LIG1        0.0618
     34 C          -0.4420    5.1363    6.8043 C.ar    1  LIG1       -0.0444
     35 H          -0.7458    5.9066    7.2263 H       1  LIG1        0.0630
     36 C           0.8450    4.1686    2.7143 C.3     1  LIG1        0.1858
     37 H           0.2121    4.9041    2.7229 H       1  LIG1        0.0815
     38 H           0.3474    3.3404    2.6327 H       1  LIG1        0.0815
     39 C           1.7768    4.3160    1.5535 C.2     1  LIG1        0.3427
     40 C           2.4790    1.3320    4.3117 C.ar    1  LIG1        0.0556
     41 C           3.4528    1.4113    5.3006 C.ar    1  LIG1        0.1486
     42 C           4.7987    1.3756    4.9490 C.ar    1  LIG1        0.0556
     43 C           5.1518    1.1828    3.6164 C.ar    1  LIG1       -0.0444
     44 H           6.0497    1.1415    3.3786 H       1  LIG1        0.0630
     45 C           4.1887    1.0528    2.6539 C.ar    1  LIG1       -0.0594
     46 H           4.4325    0.8986    1.7705 H       1  LIG1        0.0618
     47 C           2.8621    1.1499    2.9916 C.ar    1  LIG1       -0.0444
     48 H           2.2130    1.0935    2.3279 H       1  LIG1        0.0630
     49 C           2.8480    0.2375    7.2115 C.3     1  LIG1        0.1858
     50 H           3.6068   -0.3430    7.0459 H       1  LIG1        0.0815
     51 H           2.0720   -0.1559    6.7812 H       1  LIG1        0.0815
     52 C           2.6044    0.3129    8.6760 C.2     1  LIG1        0.3427
     53 C          -3.1429    7.5211   -0.0361 C.3     2  LIG2       -0.0063
     54 H          -3.6771    8.0701    0.5434 H       2  LIG2        0.0306
     55 H          -3.1912    6.6076    0.2567 H       2  LIG2        0.0306
     56 H          -3.4734    7.5876   -0.9344 H       2  LIG2        0.0306
     57 C          -1.7630    7.9707    0.0074 C.2     2  LIG2        0.1273
     58 C          -0.7471    7.1198    0.6196 C.3     2  LIG2       -0.0063
     59 H          -0.6637    6.3070    0.1163 H       2  LIG2        0.0306
     60 H          -1.0047    6.9118    1.5219 H       2  LIG2        0.0306
     61 H           0.0945    7.5803    0.6276 H       2  LIG2        0.0306
     62 H           2.8124    3.3009    7.9522 H       0  HOH0        0.2052
     63 H           2.5271    4.6021    7.8279 H       0  HOH0        0.2052
     64 O           5.7853    4.1988    5.0031 O.3     1  LIG1       -0.4786
     65 O           5.6572    4.3416    2.4049 O.3     1  LIG1       -0.4783
     66 H           5.1205    4.3333    3.0237 H       1  LIG1        0.2952
     67 O           7.7933    4.2864    2.1474 O.2     1  LIG1       -0.2472
     68 O           3.0009    6.5223    6.8432 O.3     1  LIG1       -0.4786
     69 O           1.1764    6.6551    8.7648 O.2     1  LIG1       -0.2472
     70 O           1.9696    8.6056    9.5187 O.3     1  LIG1       -0.4783
     71 H           1.3619    8.5295   10.0635 H       1  LIG1        0.2952
     72 O           1.5916    4.1646    3.9157 O.3     1  LIG1       -0.4786
     73 O           2.9532    4.4755    1.6444 O.2     1  LIG1       -0.2472
     74 O           1.1243    4.2474    0.4325 O.3     1  LIG1       -0.4783
     75 H           1.6436    4.3571   -0.1925 H       1  LIG1        0.2952
     76 O           3.1042    1.5232    6.6304 O.3     1  LIG1       -0.4786
     77 O           3.0886    1.3721    9.2422 O.3     1  LIG1       -0.4783
     78 H           2.9559    1.3344   10.0515 H       1  LIG1        0.2952
     79 O           2.0488   -0.5837    9.2505 O.2     1  LIG1       -0.2472
     80 O          -1.4512    9.0428   -0.4213 O.2     2  LIG2       -0.2980
     81 O           2.6236    4.0343    8.2664 O.3     3  HOH3       -0.4105
     82 S           6.0063    6.9297    6.3329 S.3     1  LIG1       -0.0821
     83 S           0.6140    6.8670    5.0163 S.3     1  LIG1       -0.0821
     84 S           0.7500    1.3170    4.6883 S.3     1  LIG1       -0.0821
     85 S           6.0753    1.3946    6.1713 S.3     1  LIG1       -0.0821
@<TRIPOS>BOND
     1    56    53    1
     2    80    57    2
     3    75    74    1
     4    53    57    1
     5    53    55    1
     6    53    54    1
     7    57    58    1
     8    59    58    1
     9    74    39    1
    10    58    61    1
    11    58    60    1
    12    39    73    2
    13    39    36    1
    14    46    45    1
    15    18    17    1
    16    67    13    2
    17    48    47    1
    18    65    13    1
    19    65    66    1
    20    38    36    1
    21    45    47   ar
    22    45    43   ar
    23    20    19    1
    24    36    37    1
    25    36    72    1
    26    13    10    1
    27    17    19   ar
    28    17    15   ar
    29    47    40   ar
    30    19    21   ar
    31    44    43    1
    32    16    15    1
    33    43    42   ar
    34    15    14   ar
    35    72    28    1
    36    40    84    1
    37    40    41   ar
    38    10    11    1
    39    10    12    1
    40    10    64    1
    41    21    83    1
    42    21    22   ar
    43    84    29    1
    44    42    41   ar
    45    42    85    1
    46    64     1    1
    47    83    27    1
    48    28    29   ar
    49    28    27   ar
    50    14    22   ar
    51    14    82    1
    52    41    76    1
    53    29    30   ar
    54    22    68    1
    55    27    34   ar
    56    85     2    1
    57    82     9    1
    58     1     2   ar
    59     1     9   ar
    60    76    49    1
    61    30    31    1
    62    30    32   ar
    63    51    49    1
    64    34    35    1
    65    34    32   ar
    66    68    23    1
    67     2     3   ar
    68    50    49    1
    69     9     7   ar
    70    49    52    1
    71    32    33    1
    72    24    23    1
    73    23    25    1
    74    23    26    1
    75    63    81    1
    76    62    81    1
    77     3     4    1
    78     3     5   ar
    79     7     8    1
    80     7     5   ar
    81    52    77    1
    82    52    79    2
    83    26    69    2
    84    26    70    1
    85     5     6    1
    86    77    78    1
    87    70    71    1
