@<TRIPOS>MOLECULE
?
 28 29 0 0 0
SMALL
GASTEIGER

@<TRIPOS>ATOM
      1 O           1.2439    1.2543    4.4547 O.2     1  LIG1       -0.2698
      2 N           2.0872   -0.7263    3.7429 N.am    1  LIG1       -0.2812
      3 H           2.1795   -1.5408    3.9869 H       1  LIG1        0.1551
      4 C           1.2324    0.0300    4.4691 C.2     1  LIG1        0.2497
      5 C           3.1518   -0.1656    2.9786 C.ar    1  LIG1        0.0366
      6 C           2.8795    0.6640    1.8954 C.ar    1  LIG1       -0.0292
      7 C           3.9735    1.2196    1.2404 C.ar    1  LIG1       -0.0571
      8 H           3.8243    1.7984    0.5286 H       1  LIG1        0.0621
      9 C           5.2625    0.9439    1.6077 C.ar    1  LIG1       -0.0614
     10 H           5.9707    1.3453    1.1577 H       1  LIG1        0.0618
     11 C           5.5085    0.0749    2.6384 C.ar    1  LIG1       -0.0600
     12 H           6.3821   -0.1382    2.8735 H       1  LIG1        0.0618
     13 C           4.4506   -0.4807    3.3245 C.ar    1  LIG1       -0.0402
     14 H           4.6124   -1.0717    4.0253 H       1  LIG1        0.0636
     15 C           1.4818    0.9300    1.4093 C.3     1  LIG1       -0.0380
     16 H           1.5068    1.1732    0.4814 H       1  LIG1        0.0278
     17 H           1.0970    1.6480    1.9167 H       1  LIG1        0.0278
     18 H           0.9486    0.1391    1.5180 H       1  LIG1        0.0278
     19 C           0.2397   -0.7142    5.2893 C.ar    1  LIG1        0.0551
     20 C          -0.2411   -0.1214    6.4422 C.ar    1  LIG1        0.0397
     21 H           0.0742    0.7267    6.6566 H       1  LIG1        0.0837
     22 N          -1.1253   -0.6800    7.2685 N.ar    1  LIG1       -0.2625
     23 C          -1.5708   -1.8862    6.9245 C.ar    1  LIG1        0.0276
     24 H          -2.1916   -2.3004    7.4806 H       1  LIG1        0.0829
     25 C          -1.1657   -2.5490    5.8002 C.ar    1  LIG1       -0.0429
     26 H          -1.5116   -3.3890    5.6023 H       1  LIG1        0.0633
     27 C          -0.2421   -1.9644    4.9653 C.ar    1  LIG1       -0.0467
     28 H           0.0508   -2.4029    4.1995 H       1  LIG1        0.0626
@<TRIPOS>BOND
     1    16    15    1
     2     8     7    1
     3    10     9    1
     4     7     9   ar
     5     7     6   ar
     6    15    18    1
     7    15     6    1
     8    15    17    1
     9     9    11   ar
    10     6     5   ar
    11    11    12    1
    12    11    13   ar
    13     5    13   ar
    14     5     2    1
    15    13    14    1
    16     2     3    1
    17     2     4   am
    18    28    27    1
    19     1     4    2
    20     4    19    1
    21    27    19   ar
    22    27    25   ar
    23    19    20   ar
    24    26    25    1
    25    25    23   ar
    26    20    21    1
    27    20    22   ar
    28    23    22   ar
    29    23    24    1
