@<TRIPOS>MOLECULE
?
 53 53 0 0 0
SMALL
GASTEIGER

@<TRIPOS>ATOM
      1 O           5.9132    5.3513    6.8162 O.2     1  LIG1       -0.5097
      2 H           6.7168    5.2133    6.6139 H       1  LIG1        0.2917
      3 O           2.7363    7.9645    2.0106 O.2     1  LIG1       -0.5097
      4 H           1.9705    8.2176    2.2469 H       1  LIG1        0.2917
      5 O           7.8379    4.7575    5.0174 O.2     1  LIG1       -0.2452
      6 O           7.1846    4.6756    2.8582 O.3     1  LIG1       -0.4646
      7 O           3.0056    3.4299    6.7945 O.2     1  LIG1       -0.2500
      8 O           2.5785    5.3157    7.9064 O.3     1  LIG1       -0.4674
      9 O           0.5647    7.7971    3.5282 O.2     1  LIG1       -0.2452
     10 O           0.6082    6.2924    5.2083 O.3     1  LIG1       -0.4646
     11 O           4.1558    5.1347    0.4967 O.2     1  LIG1       -0.2500
     12 O           5.5894    6.8571    0.5599 O.3     1  LIG1       -0.4674
     13 C           4.4343    5.0832    3.4822 C.3     1  LIG1        0.0223
     14 H           4.3868    4.2442    2.9393 H       1  LIG1        0.0371
     15 C           5.5609    5.0171    4.4667 C.2     1  LIG1        0.0793
     16 C           5.1555    5.2714    5.7158 C.2     1  LIG1        0.1187
     17 C           3.6794    5.5257    5.8364 C.3     1  LIG1        0.1214
     18 H           3.5142    6.4849    6.0678 H       1  LIG1        0.0500
     19 C           3.1678    5.2290    4.3945 C.3     1  LIG1        0.0223
     20 H           2.6266    4.3881    4.3799 H       1  LIG1        0.0371
     21 C           2.4114    6.3545    3.7516 C.2     1  LIG1        0.0793
     22 C           3.1144    6.9287    2.7651 C.2     1  LIG1        0.1187
     23 C           4.4763    6.3337    2.5606 C.3     1  LIG1        0.1214
     24 H           5.1759    6.9699    2.8855 H       1  LIG1        0.0500
     25 C           6.9628    4.8144    4.1588 C.2     1  LIG1        0.3384
     26 C           8.5650    4.5184    2.4490 C.3     1  LIG1        0.0820
     27 H           9.0707    5.3221    2.6899 H       1  LIG1        0.0661
     28 H           8.6052    4.3847    1.4793 H       1  LIG1        0.0661
     29 H           8.9527    3.7403    2.9027 H       1  LIG1        0.0661
     30 C           3.0517    4.6238    6.8816 C.2     1  LIG1        0.3180
     31 C           1.9962    4.5192    8.9737 C.3     1  LIG1        0.0817
     32 H           1.1946    4.0642    8.6415 H       1  LIG1        0.0661
     33 H           1.7536    5.1028    9.7230 H       1  LIG1        0.0661
     34 H           2.6472    3.8526    9.2758 H       1  LIG1        0.0661
     35 C           1.1186    6.8885    4.1363 C.2     1  LIG1        0.3384
     36 C          -0.6543    6.8183    5.6934 C.3     1  LIG1        0.0820
     37 H          -0.5382    7.7549    5.9581 H       1  LIG1        0.0661
     38 H          -0.9506    6.2947    6.4677 H       1  LIG1        0.0661
     39 H          -1.3270    6.7600    4.9841 H       1  LIG1        0.0661
     40 C           4.7138    6.0143    1.0944 C.2     1  LIG1        0.3180
     41 C           5.8940    6.6589   -0.8444 C.3     1  LIG1        0.0817
     42 H           6.4725    5.8748   -0.9461 H       1  LIG1        0.0661
     43 H           6.3529    7.4507   -1.1933 H       1  LIG1        0.0661
     44 H           5.0614    6.5175   -1.3417 H       1  LIG1        0.0661
     45 C           0.8610    4.2930    1.0648 C.2     2  LIG2       -0.0625
     46 H           1.4602    4.3119    1.8018 H       2  LIG2        0.0617
     47 C           0.4932    3.0801    0.5171 C.2     2  LIG2       -0.0684
     48 C           1.0403    1.7849    1.0587 C.3     2  LIG2       -0.0432
     49 H           0.5814    1.5604    1.8943 H       2  LIG2        0.0275
     50 H           2.0002    1.8826    1.2299 H       2  LIG2        0.0275
     51 H           0.8962    1.0703    0.4042 H       2  LIG2        0.0275
     52 C          -0.3729    3.0938   -0.5582 C.3     2  LIG2       -0.0057
     53 H          -0.6368    2.2716   -0.9547 H       2  LIG2        0.0357
@<TRIPOS>BOND
     1    44    41    1
     2    43    41    1
     3    53    52    1
     4    42    41    1
     5    41    12    1
     6    52    47    1
     7    51    48    1
     8    11    40    2
     9    47    48    1
    10    47    45    2
    11    12    40    1
    12    48    50    1
    13    48    49    1
    14    45    46    1
    15    40    23    1
    16    28    26    1
    17     3     4    1
    18     3    22    1
    19    26    27    1
    20    26     6    1
    21    26    29    1
    22    23    22    1
    23    23    24    1
    24    23    13    1
    25    22    21    2
    26     6    25    1
    27    14    13    1
    28    13    19    1
    29    13    15    1
    30     9    35    2
    31    21    35    1
    32    21    19    1
    33    35    10    1
    34    25    15    1
    35    25     5    2
    36    20    19    1
    37    19    17    1
    38    15    16    2
    39    39    36    1
    40    10    36    1
    41    36    37    1
    42    36    38    1
    43    16    17    1
    44    16     1    1
    45    17    18    1
    46    17    30    1
    47     2     1    1
    48     7    30    2
    49    30     8    1
    50     8    31    1
    51    32    31    1
    52    31    34    1
    53    31    33    1
