@<TRIPOS>MOLECULE
?
 29 31 0 0 0
SMALL
GASTEIGER

@<TRIPOS>ATOM
      1 O           2.0839    1.7470    1.7769 O.3     1  LIG1       -0.4522
      2 C           2.2581    2.0421    0.3999 C.3     1  LIG1        0.2463
      3 H           1.3689    2.0575   -0.0572 H       1  LIG1        0.1206
      4 O           2.9305    3.3000    0.1992 O.3     1  LIG1       -0.4212
      5 O           2.6994    5.4864    0.4673 O.2     1  LIG1       -0.2447
      6 C           2.4347    4.3807    0.8725 C.2     1  LIG1        0.3456
      7 C           1.2330    5.1324    2.9385 C.ar    1  LIG1       -0.0436
      8 H           1.3170    6.0357    2.6552 H       1  LIG1        0.0627
      9 C           0.6668    4.8512    4.1438 C.ar    1  LIG1       -0.0530
     10 H           0.3595    5.5606    4.6953 H       1  LIG1        0.0624
     11 C           0.5291    3.5055    4.5878 C.ar    1  LIG1       -0.0143
     12 C          -0.0578    3.1855    5.8428 C.ar    1  LIG1       -0.0539
     13 H          -0.3701    3.8838    6.4072 H       1  LIG1        0.0624
     14 C          -0.1783    1.8780    6.2485 C.ar    1  LIG1       -0.0612
     15 H          -0.5777    1.6816    7.0879 H       1  LIG1        0.0618
     16 C           0.2837    0.8290    5.4339 C.ar    1  LIG1       -0.0611
     17 H           0.1941   -0.0708    5.7248 H       1  LIG1        0.0618
     18 C           0.8631    1.1000    4.2199 C.ar    1  LIG1       -0.0505
     19 H           1.1779    0.3870    3.6766 H       1  LIG1        0.0625
     20 C           0.9942    2.4396    3.7714 C.ar    1  LIG1        0.0248
     21 C           1.5801    2.7734    2.5221 C.ar    1  LIG1        0.1466
     22 C           1.6994    4.0825    2.1024 C.ar    1  LIG1        0.1014
     23 C           3.1113    0.9432   -0.1817 C.3     1  LIG1        0.0190
     24 H           2.6153    0.0881   -0.1199 H       1  LIG1        0.0334
     25 H           3.9316    0.8541    0.3653 H       1  LIG1        0.0334
     26 C           3.5121    1.1710   -1.6286 C.3     1  LIG1       -0.0585
     27 H           4.0617    0.4200   -1.9373 H       1  LIG1        0.0232
     28 H           4.0256    2.0025   -1.6984 H       1  LIG1        0.0232
     29 H           2.7071    1.2364   -2.1836 H       1  LIG1        0.0232
@<TRIPOS>BOND
     1    29    26    1
     2    27    26    1
     3    28    26    1
     4    26    23    1
     5    23    24    1
     6    23    25    1
     7    23     2    1
     8     3     2    1
     9     4     2    1
    10     4     6    1
    11     2     1    1
    12     5     6    2
    13     6    22    1
    14     1    21    1
    15    22    21   ar
    16    22     7   ar
    17    21    20   ar
    18     8     7    1
    19     7     9   ar
    20    19    18    1
    21    20    18   ar
    22    20    11   ar
    23     9    11   ar
    24     9    10    1
    25    18    16   ar
    26    11    12   ar
    27    16    17    1
    28    16    14   ar
    29    12    14   ar
    30    12    13    1
    31    14    15    1
