@<TRIPOS>MOLECULE
?
 30 29 0 0 0
SMALL
GASTEIGER

@<TRIPOS>ATOM
      1 P           4.1369    9.8768    2.3224 P.3     1  LIG1        0.6235
      2 F           5.3215    9.7747    1.2524 F       1  LIG1       -0.1039
      3 F           4.2087   11.4772    2.2401 F       1  LIG1       -0.1039
      4 F           3.0630    9.8802    1.1285 F       1  LIG1       -0.1039
      5 F           4.0580    8.2976    2.4117 F       1  LIG1       -0.1039
      6 F           2.9509   10.0108    3.3876 F       1  LIG1       -0.1039
      7 F           5.2085    9.8962    3.5146 F       1  LIG1       -0.1039
      8 O           0.5739    6.9226    7.2150 O.2     2  LIG2       -0.2743
      9 O           5.7371    6.3428    5.0289 O.2     2  LIG2       -0.2707
     10 N          -0.5953    5.8443    5.6011 N.am    2  LIG2       -0.3280
     11 H          -1.0333    5.3439    6.1774 H       2  LIG2        0.1450
     12 H          -0.7471    5.7585    4.7385 H       2  LIG2        0.1450
     13 N           2.1707    8.1798    5.5052 N.pl3   2  LIG2       -0.3037
     14 N           6.8826    7.8092    6.2972 N.am    2  LIG2       -0.3256
     15 H           7.6462    7.3944    6.1603 H       2  LIG2        0.1452
     16 H           6.8580    8.5295    6.8007 H       2  LIG2        0.1452
     17 C           0.2883    6.7241    6.0302 C.2     2  LIG2        0.2282
     18 C           0.9780    7.5390    4.9338 C.3     2  LIG2        0.0923
     19 H           1.2386    6.9462    4.1849 H       2  LIG2        0.0563
     20 H           0.3590    8.2281    4.5850 H       2  LIG2        0.0563
     21 C           3.3634    7.5757    5.3779 C.2     2  LIG2        0.0054
     22 H           3.4349    6.7781    4.8672 H       2  LIG2        0.0788
     23 C           4.4885    8.1049    5.9834 C.2     2  LIG2        0.0357
     24 C           5.7672    7.3469    5.7440 C.2     2  LIG2        0.2393
     25 C           4.3592    9.2710    6.7260 C.3     2  LIG2        0.0202
     26 H           5.1160    9.6490    7.1573 H       2  LIG2        0.0403
     27 C           3.1206    9.8799    6.8342 C.2     2  LIG2       -0.0615
     28 H           3.0243   10.6832    7.3326 H       2  LIG2        0.0591
     29 C           2.0298    9.3142    6.2165 C.2     2  LIG2       -0.0066
     30 H           1.1763    9.7240    6.2921 H       2  LIG2        0.0780
@<TRIPOS>BOND
     1     4     1    1
     2     2     1    1
     3     3     1    1
     4     1     5    1
     5     1     6    1
     6     1     7    1
     7    19    18    1
     8    20    18    1
     9    12    10    1
    10    22    21    1
    11    18    13    1
    12    18    17    1
    13     9    24    2
    14    21    13    1
    15    21    23    2
    16    13    29    1
    17    10    17   am
    18    10    11    1
    19    24    23    1
    20    24    14   am
    21    23    25    1
    22    17     8    2
    23    15    14    1
    24    29    30    1
    25    29    27    2
    26    14    16    1
    27    25    27    1
    28    25    26    1
    29    27    28    1
