@<TRIPOS>MOLECULE
C12 H20 N14 O14
 60 61 0 0 0
SMALL
GASTEIGER

@<TRIPOS>ATOM
      1 C          -0.1467   -0.6997    7.1090 C.3     1  LIG1        0.1717
      2 C           1.1607    1.2701    7.1735 C.3     1  LIG1        0.1717
      3 C           1.8818    0.1913    6.2844 C.3     1  LIG1        0.1717
      4 C          -1.1174   -0.3609    5.8876 C.3     1  LIG1        0.1717
      5 C          -0.3092    1.8246    5.2824 C.3     1  LIG1        0.1717
      6 C           0.3948    0.7285    4.4088 C.3     1  LIG1        0.1717
      7 N           0.0863    0.5348    7.8218 N.pl3   1  LIG1       -0.1551
      8 N          -0.0397    0.5824    9.2069 N.pl3   1  LIG1        0.1246
      9 N           1.1516   -1.0394    6.5716 N.pl3   1  LIG1       -0.1551
     10 N           1.8735   -2.0857    7.1391 N.pl3   1  LIG1        0.1246
     11 N          -0.3926   -0.4715    4.6561 N.pl3   1  LIG1       -0.1551
     12 N          -0.8596   -1.2564    3.6315 N.pl3   1  LIG1        0.1246
     13 N          -1.4373    1.0636    5.8309 N.pl3   1  LIG1       -0.1551
     14 N          -2.1746    1.6032    6.8496 N.pl3   1  LIG1        0.1246
     15 N           0.6179    2.2689    6.2921 N.pl3   1  LIG1       -0.1551
     16 N           0.6579    3.6019    6.6594 N.pl3   1  LIG1        0.1246
     17 N           1.7315    0.5683    4.9073 N.pl3   1  LIG1       -0.1551
     18 N           2.7783    0.3437    4.0189 N.pl3   1  LIG1        0.1246
     19 O          -0.6386   -0.3338    9.7260 O.2     1  LIG1       -0.1096
     20 O           0.3838    1.5828    9.7378 O.2     1  LIG1       -0.1096
     21 O           1.2587   -2.8796    7.8166 O.2     1  LIG1       -0.1096
     22 O           3.0415   -2.1568    6.8217 O.2     1  LIG1       -0.1096
     23 O          -2.0689    2.7981    7.0357 O.2     1  LIG1       -0.1096
     24 O          -2.8912    0.8298    7.4654 O.2     1  LIG1       -0.1096
     25 O          -1.6964   -2.0898    3.9202 O.2     1  LIG1       -0.1096
     26 O          -0.3357   -1.0992    2.5461 O.2     1  LIG1       -0.1096
     27 O           1.2845    3.8747    7.6665 O.2     1  LIG1       -0.1096
     28 O           0.1315    4.3955    5.9115 O.2     1  LIG1       -0.1096
     29 O           3.8471    0.0389    4.5034 O.2     1  LIG1       -0.1096
     30 O           2.5369    0.5234    2.8453 O.2     1  LIG1       -0.1096
     31 O           6.2407    1.7470    2.6690 O.2     2  LIG2       -0.2793
     32 C           5.2778    2.0412    1.9980 C.2     2  LIG2        0.2020
     33 N           5.1128    1.7469    0.7154 N.am    2  LIG2       -0.3101
     34 C           6.1104    1.0014   -0.0006 C.3     2  LIG2        0.0026
     35 C           3.9824    2.2192   -0.0338 C.3     2  LIG2        0.0026
     36 C           4.7647   -1.6656   11.6047 C.3     3  LIG3        0.0026
     37 N           3.6246   -0.9782   11.0366 N.am    3  LIG3       -0.3101
     38 C           2.7670   -0.2342   11.9210 C.3     3  LIG3        0.0026
     39 C           3.4169   -0.9732    9.7228 C.2     3  LIG3        0.2020
     40 O           2.5000   -0.3888    9.1576 O.2     3  LIG3       -0.2793
     41 H          -0.5186   -1.3868    7.6994 H       1  LIG1        0.0779
     42 H           1.7777    1.6532    7.8265 H       1  LIG1        0.0779
     43 H           2.8246    0.1082    6.4909 H       1  LIG1        0.0779
     44 H          -1.9357   -0.9114    5.9115 H       1  LIG1        0.0779
     45 H          -0.6382    2.5736    4.7267 H       1  LIG1        0.0779
     46 H           0.3945    0.9419    3.4542 H       1  LIG1        0.0779
     47 H           4.5881    2.4946    2.4202 H       2  LIG2        0.1253
     48 H           5.6729    0.2144   -0.3589 H       2  LIG2        0.0428
     49 H           6.4697    1.5391   -0.7055 H       2  LIG2        0.0428
     50 H           6.8005    0.7186    0.6233 H       2  LIG2        0.0428
     51 H           3.5326    1.4514   -0.4152 H       2  LIG2        0.0428
     52 H           4.2762    2.7996   -0.7437 H       2  LIG2        0.0428
     53 H           3.3750    2.6992    0.5299 H       2  LIG2        0.0428
     54 H           5.0481   -2.3617   11.0095 H       3  LIG3        0.0428
     55 H           4.4952   -2.0199   12.4486 H       3  LIG3        0.0428
     56 H           5.4825   -1.0426   11.7307 H       3  LIG3        0.0428
     57 H           1.9235   -0.1076   11.5192 H       3  LIG3        0.0428
     58 H           2.6623   -0.7020   12.7569 H       3  LIG3        0.0428
     59 H           3.1773    0.6109   12.1054 H       3  LIG3        0.0428
     60 H           4.0109   -1.4578    9.1823 H       3  LIG3        0.1253
@<TRIPOS>BOND
     1    52    35    1
     2    49    34    1
     3    51    35    1
     4    48    34    1
     5    35    53    1
     6    35    33    1
     7    34    50    1
     8    34    33    1
     9    33    32   am
    10    32    47    1
    11    32    31    2
    12    26    12    2
    13    30    18    2
    14    46     6    1
    15    12    25    2
    16    12    11    1
    17    18    29    2
    18    18    17    1
    19     6    11    1
    20     6    17    1
    21     6     5    1
    22    11     4    1
    23    45     5    1
    24    17     3    1
    25     5    13    1
    26     5    15    1
    27    13     4    1
    28    13    14    1
    29     4    44    1
    30     4     1    1
    31    28    16    2
    32     3    43    1
    33     3     9    1
    34     3     2    1
    35    15    16    1
    36    15     2    1
    37     9     1    1
    38     9    10    1
    39    16    27    2
    40    22    10    2
    41    14    23    2
    42    14    24    2
    43     1    41    1
    44     1     7    1
    45    10    21    2
    46     2     7    1
    47     2    42    1
    48     7     8    1
    49    40    39    2
    50    60    39    1
    51     8    19    2
    52     8    20    2
    53    39    37   am
    54    54    36    1
    55    37    36    1
    56    37    38    1
    57    57    38    1
    58    36    56    1
    59    36    55    1
    60    38    59    1
    61    38    58    1
