@<TRIPOS>MOLECULE
?
 23 22 0 0 0
SMALL
GASTEIGER

@<TRIPOS>ATOM
      1 C           3.2441    7.6456    9.7679 C.2     1  LIG1        0.2575
      2 C           2.4958    6.5467   10.4804 C.ar    1  LIG1        0.0408
      3 C           2.6320    5.2508   10.0088 C.ar    1  LIG1       -0.0314
      4 H           3.2185    5.0645    9.3123 H       1  LIG1        0.0640
      5 C           1.8889    4.2380   10.5828 C.ar    1  LIG1        0.0283
      6 H           1.9721    3.3728   10.2512 H       1  LIG1        0.0830
      7 C           0.9527    5.7058   12.0973 C.ar    1  LIG1        0.0283
      8 H           0.3920    5.8548   12.8239 H       1  LIG1        0.0830
      9 C           1.6520    6.7648   11.5657 C.ar    1  LIG1       -0.0314
     10 H           1.5617    7.6164   11.9271 H       1  LIG1        0.0640
     11 C          -0.3484    1.5358   12.1885 C.2     2  LIG2        0.3095
     12 C          -1.3892    0.5798   12.6749 C.3     2  LIG2        0.0835
     13 H          -1.8945    0.8148   13.4197 H       2  LIG2        0.0430
     14 H           2.0355    9.0396   10.4184 H       1  LIG1        0.1690
     15 H           4.0584   10.2111    9.6356 H       1  LIG1        0.1405
     16 H           0.2797    3.4970   12.0819 H       2  LIG2        0.2951
     17 H           3.4014    9.7478    8.4167 H       1  LIG1        0.1405
     18 N           3.2811   10.0116    9.2655 N.3     1  LIG1       -0.2541
     19 N           2.7884    8.8858    9.9700 N.am    1  LIG1       -0.2496
     20 N           1.0557    4.4665   11.5992 N.ar    1  LIG1       -0.2632
     21 O           4.1878    7.3993    9.0241 O.2     1  LIG1       -0.2689
     22 O           0.5547    1.1883   11.4448 O.2     2  LIG2       -0.2507
     23 O          -0.5144    2.7420   12.6114 O.3     2  LIG2       -0.4804
@<TRIPOS>BOND
     1    17    18    1
     2    21     1    2
     3    18    15    1
     4    18    19    1
     5     4     3    1
     6     1    19   am
     7     1     2    1
     8    19    14    1
     9     3     2   ar
    10     3     5   ar
    11     6     5    1
    12     2     9   ar
    13     5    20   ar
    14    22    11    2
    15     9    10    1
    16     9     7   ar
    17    20     7   ar
    18    16    23    1
    19     7     8    1
    20    11    23    1
    21    11    12    1
    22    12    13    1
