@<TRIPOS>MOLECULE
bis(4-Carboxyphenylammonium) 2,5-dicarboxybenzene-1,4-dicarboxylate
 29 28 0 0 0
SMALL
GASTEIGER

@<TRIPOS>ATOM
      1 C           0.0722    7.4723    5.4343 C.3     1  LIG1        0.1461
      2 C           0.9710    8.0531    4.5316 C.2     1  LIG1        0.0563
      3 C           1.6526    7.2584    3.6093 C.2     1  LIG1       -0.0501
      4 H           2.2456    7.6535    3.0118 H       1  LIG1        0.0623
      5 C          -0.6720    8.2646    6.4888 C.2     1  LIG1        0.3694
      6 C           1.1532    9.5283    4.5094 C.2     1  LIG1        0.3339
      7 C           2.5438    3.5459    7.5389 C.ar    2  LIG2        0.0592
      8 C           2.0273    4.1160    8.7026 C.ar    2  LIG2       -0.0418
      9 H           1.6821    3.5701    9.3713 H       2  LIG2        0.0628
     10 C           2.0260    5.4940    8.8676 C.ar    2  LIG2        0.0043
     11 H           1.6730    5.8781    9.6379 H       2  LIG2        0.0681
     12 C           2.5598    6.2880    7.8651 C.ar    2  LIG2        0.1417
     13 C           3.0730    5.7391    6.6998 C.ar    2  LIG2        0.0043
     14 H           3.4181    6.2883    6.0335 H       2  LIG2        0.0681
     15 C           3.0657    4.3612    6.5399 C.ar    2  LIG2       -0.0418
     16 H           3.4102    3.9820    5.7642 H       2  LIG2        0.0628
     17 C           2.5689    2.0570    7.4122 C.2     2  LIG2        0.3368
     18 N           2.5610    7.7383    8.0147 N.pl3   2  LIG2       -0.4113
     19 H           2.5475    7.9886    8.9173 H       2  LIG2        0.3712
     20 H           3.2320    8.0956    7.5375 H       2  LIG2        0.3712
     21 H           1.7705    8.0609    7.6762 H       2  LIG2        0.3712
     22 O          -0.0221    8.5844    7.5064 O.co2   1  LIG1       -0.2453
     23 O          -1.8863    8.4890    6.2837 O.co2   1  LIG1       -0.2453
     24 O           0.4402   10.2639    5.1596 O.2     1  LIG1       -0.2455
     25 O           2.1019    9.9475    3.7268 O.3     1  LIG1       -0.4773
     26 H           2.1391   10.7663    3.7566 H       1  LIG1        0.2954
     27 O           3.1896    1.6622    6.3159 O.3     2  LIG2       -0.4771
     28 H           3.2492    0.8439    6.3145 H       2  LIG2        0.2954
     29 O           2.1112    1.2996    8.2307 O.2     2  LIG2       -0.2451
@<TRIPOS>BOND
     1     4     3    1
     2     3     2    2
     3    25    26    1
     4    25     6    1
     5     6     2    1
     6     6    24    2
     7     2     1    1
     8     1     5    1
     9    16    15    1
    10    14    13    1
    11    23     5   ar
    12    28    27    1
    13    27    17    1
    14     5    22   ar
    15    15    13   ar
    16    15     7   ar
    17    13    12   ar
    18    17     7    1
    19    17    29    2
    20    20    18    1
    21     7     8   ar
    22    21    18    1
    23    12    18    1
    24    12    10   ar
    25    18    19    1
    26     8    10   ar
    27     8     9    1
    28    10    11    1
