@<TRIPOS>MOLECULE
C15 H14 N2 O2
 33 35 0 0 0
SMALL
GASTEIGER

@<TRIPOS>ATOM
      1 O           5.6747    3.6443    5.5327 O.2     1  LIG1       -0.2749
      2 O           4.6623   -0.3517    4.6343 O.2     1  LIG1       -0.2749
      3 N           4.1900    2.2512    6.4464 N.am    1  LIG1       -0.3284
      4 N           5.5652    1.0764    3.1750 N.am    1  LIG1       -0.3284
      5 C           6.3929    0.3167    6.7154 C.3     1  LIG1       -0.0047
      6 C           6.2036    1.2780    5.5082 C.3     1  LIG1        0.1300
      7 C           7.6413    1.6924    5.1222 C.3     1  LIG1       -0.0047
      8 C           8.4123    1.5431    6.3924 C.ar    1  LIG1       -0.0421
      9 C           9.6673    1.9909    6.7103 C.ar    1  LIG1       -0.0505
     10 C          10.2308    1.6860    7.9741 C.ar    1  LIG1       -0.0176
     11 C          11.5194    2.1472    8.3563 C.ar    1  LIG1       -0.0540
     12 C          12.0365    1.8345    9.5699 C.ar    1  LIG1       -0.0612
     13 C          11.2991    1.0431   10.4605 C.ar    1  LIG1       -0.0612
     14 C          10.0698    0.5826   10.1401 C.ar    1  LIG1       -0.0540
     15 C           9.4857    0.9002    8.8930 C.ar    1  LIG1       -0.0176
     16 C           8.1963    0.4525    8.5326 C.ar    1  LIG1       -0.0505
     17 C           7.6858    0.7636    7.3203 C.ar    1  LIG1       -0.0421
     18 C           5.3461    2.5029    5.8557 C.2     1  LIG1        0.2262
     19 C           5.4229    0.5922    4.3950 C.2     1  LIG1        0.2262
     20 H           3.5967    2.9466    6.6228 H       1  LIG1        0.1450
     21 H           3.9677    1.3796    6.6820 H       1  LIG1        0.1450
     22 H           5.0836    0.7089    2.4697 H       1  LIG1        0.1450
     23 H           6.1505    1.7829    3.0205 H       1  LIG1        0.1450
     24 H           5.6781    0.4009    7.3653 H       1  LIG1        0.0328
     25 H           6.4724   -0.6104    6.4413 H       1  LIG1        0.0328
     26 H           8.0183    1.1105    4.4439 H       1  LIG1        0.0328
     27 H           7.6824    2.6124    4.8184 H       1  LIG1        0.0328
     28 H          10.1510    2.4981    6.0990 H       1  LIG1        0.0626
     29 H          12.0125    2.6584    7.7566 H       1  LIG1        0.0624
     30 H          12.8678    2.1639    9.8222 H       1  LIG1        0.0618
     31 H          11.6750    0.8105   11.2790 H       1  LIG1        0.0618
     32 H           9.5989    0.0611   10.7488 H       1  LIG1        0.0624
     33 H           7.7052   -0.0722    9.1221 H       1  LIG1        0.0626
@<TRIPOS>BOND
     1    22     4    1
     2    23     4    1
     3     4    19   am
     4    19     2    2
     5    19     6    1
     6    26     7    1
     7    27     7    1
     8     7     6    1
     9     7     8    1
    10     6    18    1
    11     6     5    1
    12     1    18    2
    13    18     3   am
    14    28     9    1
    15     8     9   ar
    16     8    17   ar
    17    25     5    1
    18     3    20    1
    19     3    21    1
    20     9    10   ar
    21     5    17    1
    22     5    24    1
    23    17    16   ar
    24    29    11    1
    25    10    11   ar
    26    10    15   ar
    27    11    12   ar
    28    16    15   ar
    29    16    33    1
    30    15    14   ar
    31    12    30    1
    32    12    13   ar
    33    14    13   ar
    34    14    32    1
    35    13    31    1
