@<TRIPOS>MOLECULE
N-Acetyl-L-Cysteine
 19 18 0 0 0
SMALL
GASTEIGER

@<TRIPOS>ATOM
      1 SG         -0.0874   -1.2180    4.8682 S.3     1  CYS1       -0.1759
      2 HG         -0.1747   -0.7936    6.0363 H       1  CYS1        0.1017
      3 OXT         0.1229    2.0568    2.9790 O.3     1  CYS1       -0.4793
      4 HXT        -0.0689    2.2454    2.1830 H       1  CYS1        0.2951
      5 N           1.1159    1.7373    5.3987 N.am    1  CYS1       -0.3020
      6 H           0.3486    2.1419    5.2510 H       1  CYS1        0.1495
      7 CB          1.6018   -0.5970    4.6972 C.3     1  CYS1        0.0195
      8 HB1         2.0882   -0.7630    5.5435 H       1  CYS1        0.0397
      9 HB2         2.0578   -1.1104    3.9840 H       1  CYS1        0.0397
     10 O           1.4729    0.5540    2.0235 O.2     1  CYS1       -0.2489
     11 CA          1.6939    0.8952    4.3631 C.3     1  CYS1        0.1290
     12 HA          2.6644    1.1266    4.2995 H       1  CYS1        0.0623
     13 O           2.8180    1.3355    6.8088 O.2     0  UNK0       -0.2761
     14 C           1.0758    1.1546    2.9971 C.2     1  CYS1        0.3261
     15 C           1.7356    1.9057    6.5738 C.2     0  UNK0        0.2106
     16 C           1.0917    2.8314    7.5596 C.3     0  UNK0        0.0122
     17 H           1.5835    3.6789    7.5815 H       0  UNK0        0.0322
     18 H           1.1065    2.4223    8.4502 H       0  UNK0        0.0322
     19 H           0.1638    2.9986    7.2928 H       0  UNK0        0.0322
@<TRIPOS>BOND
     1    10    14    2
     2     4     3    1
     3     3    14    1
     4    14    11    1
     5     9     7    1
     6    12    11    1
     7    11     7    1
     8    11     5    1
     9     7     1    1
    10     7     8    1
    11     1     2    1
    12     6     5    1
    13     5    15   am
    14    15    13    2
    15    15    16    1
    16    19    16    1
    17    16    17    1
    18    16    18    1
