@<TRIPOS>MOLECULE
?
 29 29 0 0 0
SMALL
GASTEIGER

@<TRIPOS>ATOM
      1 O           0.6817    4.6385   14.9536 O.3     0  UNK0       -0.4771
      2 H           1.1020    4.8979   15.6078 H       0  UNK0        0.2954
      3 O          -0.0736    6.7057   14.9405 O.2     0  UNK0       -0.2451
      4 OXT         0.8622    8.0622    8.2504 O.co2   1  ALA1       -0.2400
      5 O          -0.9160    7.1663    7.2469 O.co2   1  ALA1       -0.2400
      6 N          -0.3265    4.6567    7.9953 N.4     1  ALA1        0.2403
      7 H1          0.0688    3.8532    8.0843 H       1  ALA1        0.2025
      8 H2         -0.6246    4.7156    7.1475 H       1  ALA1        0.2025
      9 C           0.0969    5.6609   14.3773 C.2     0  UNK0        0.3368
     10 C          -0.3202    5.3880   12.9868 C.ar    0  UNK0        0.0589
     11 C          -1.0024    6.3568   12.2737 C.ar    0  UNK0       -0.0473
     12 H          -1.2013    7.1704   12.6784 H       0  UNK0        0.0626
     13 C          -1.3903    6.1327   10.9732 C.ar    0  UNK0       -0.0528
     14 H          -1.8424    6.7980   10.5073 H       0  UNK0        0.0622
     15 C          -1.1168    4.9279   10.3526 C.ar    0  UNK0       -0.0029
     16 C          -0.4435    3.9438   11.0662 C.ar    0  UNK0       -0.0528
     17 H          -0.2551    3.1267   10.6630 H       0  UNK0        0.0622
     18 C          -0.0534    4.1732   12.3753 C.ar    0  UNK0       -0.0473
     19 H           0.3923    3.5073   12.8480 H       0  UNK0        0.0626
     20 C          -1.5175    4.6962    8.9134 C.3     0  UNK0       -0.0069
     21 H          -1.9989    3.8573    8.8477 H       0  UNK0        0.0867
     22 H          -2.1154    5.4062    8.6299 H       0  UNK0        0.0867
     23 C           0.1592    7.0898    7.8620 C.2     1  ALA1        0.4024
     24 CA          0.7134    5.7092    8.1952 C.3     1  ALA1        0.0777
     25 HA          0.9982    5.6992    9.1325 H       1  ALA1        0.0967
     26 CB          1.9100    5.3874    7.3121 C.3     1  ALA1       -0.0109
     27 HB1         2.2513    4.5191    7.5400 H       1  ALA1        0.0290
     28 HB2         2.5949    6.0462    7.4488 H       1  ALA1        0.0290
     29 HB3         1.6393    5.3927    6.3905 H       1  ALA1        0.0290
@<TRIPOS>BOND
     1    29    26    1
     2     8     6    1
     3     5    23   ar
     4    26    28    1
     5    26    27    1
     6    26    24    1
     7    23    24    1
     8    23     4   ar
     9     6     7    1
    10     6    24    1
    11     6    20    1
    12    24    25    1
    13    22    20    1
    14    21    20    1
    15    20    15    1
    16    15    13   ar
    17    15    16   ar
    18    14    13    1
    19    17    16    1
    20    13    11   ar
    21    16    18   ar
    22    11    12    1
    23    11    10   ar
    24    18    19    1
    25    18    10   ar
    26    10     9    1
    27     9     3    2
    28     9     1    1
    29     1     2    1
