@<TRIPOS>MOLECULE
N-methylurea
 11 10 0 0 0
SMALL
GASTEIGER

@<TRIPOS>ATOM
      1 O           2.5263    3.0561    1.6800 O.2     1  LIG1       -0.2531
      2 N           1.3545    2.2953    3.4769 N.am    1  LIG1       -0.3026
      3 N           2.2910    4.3953    3.5060 N.am    1  LIG1       -0.3134
      4 C           2.0769    3.2401    2.8382 C.2     1  LIG1        0.2968
      5 C           0.9610    1.0707    2.8102 C.3     1  LIG1        0.0015
      6 H           0.9793    2.5497    4.3791 H       1  LIG1        0.1499
      7 H           1.9034    4.4724    4.4353 H       1  LIG1        0.1465
      8 H           2.9118    5.0737    3.0900 H       1  LIG1        0.1465
      9 H           0.5685    0.4182    3.5571 H       1  LIG1        0.0426
     10 H           0.2474    1.2407    2.0364 H       1  LIG1        0.0426
     11 H           1.8239    0.5898    2.4087 H       1  LIG1        0.0426
@<TRIPOS>BOND
     1     1     4    2
     2    10     5    1
     3    11     5    1
     4     5     2    1
     5     5     9    1
     6     4     2   am
     7     4     3   am
     8     8     3    1
     9     2     6    1
    10     3     7    1
