@<TRIPOS>MOLECULE
?
 48 50 0 0 0
SMALL
GASTEIGER

@<TRIPOS>ATOM
      1 O           3.2556    9.4647    0.8535 O.3     1  LIG1       -0.4524
      2 O           4.7758    7.8271    2.6780 O.3     1  LIG1       -0.3853
      3 H           3.9818    7.7437    2.8639 H       1  LIG1        0.2101
      4 O           6.7216    6.1549    1.4882 O.3     1  LIG1       -0.3853
      5 H           6.3591    6.0472    2.2163 H       1  LIG1        0.2101
      6 O           8.6305    8.1621    0.8674 O.3     1  LIG1       -0.4524
      7 O           7.8707   10.8239    1.5362 O.3     1  LIG1       -0.3853
      8 H           8.3276   11.1835    0.9575 H       1  LIG1        0.2101
      9 O           5.2323   11.4811    0.6040 O.3     1  LIG1       -0.3853
     10 H           4.9449   12.0007    1.1701 H       1  LIG1        0.2101
     11 O           2.9190    9.8402   -1.3396 O.2     1  LIG1       -0.2449
     12 O           9.4474    7.2340    2.7508 O.2     1  LIG1       -0.2449
     13 C           4.6597    9.1518    0.6323 C.3     1  LIG1        0.1598
     14 H           4.8255    9.0936   -0.3313 H       1  LIG1        0.0788
     15 C           4.9371    7.8001    1.2642 C.3     1  LIG1        0.1239
     16 H           4.3341    7.1302    0.8795 H       1  LIG1        0.0658
     17 C           6.3709    7.4160    0.9714 C.3     1  LIG1        0.1239
     18 H           6.4593    7.3596   -0.0032 H       1  LIG1        0.0658
     19 C           7.3401    8.4927    1.4439 C.3     1  LIG1        0.1598
     20 H           7.3949    8.4953    2.4226 H       1  LIG1        0.0788
     21 C           6.9979    9.8772    0.9312 C.3     1  LIG1        0.1239
     22 H           7.1391    9.8956   -0.0385 H       1  LIG1        0.0658
     23 C           5.5402   10.2329    1.2183 C.3     1  LIG1        0.1239
     24 H           5.3955   10.2925    2.1853 H       1  LIG1        0.0658
     25 C           2.4881    9.7220   -0.2227 C.2     1  LIG1        0.3396
     26 C           1.0477    9.8115    0.1172 C.ar    1  LIG1        0.0590
     27 C           0.5620    9.5261    1.3822 C.ar    1  LIG1       -0.0478
     28 H           1.1480    9.2891    2.0635 H       1  LIG1        0.0626
     29 C          -0.7951    9.5934    1.6299 C.ar    1  LIG1       -0.0610
     30 H          -1.1182    9.4132    2.4824 H       1  LIG1        0.0618
     31 C          -1.6746    9.9264    0.6194 C.ar    1  LIG1       -0.0617
     32 H          -2.5879    9.9647    0.7908 H       1  LIG1        0.0618
     33 C          -1.2010   10.2011   -0.6365 C.ar    1  LIG1       -0.0610
     34 H          -1.7929   10.4178   -1.3198 H       1  LIG1        0.0618
     35 C           0.1547   10.1555   -0.8885 C.ar    1  LIG1       -0.0478
     36 H           0.4733   10.3569   -1.7387 H       1  LIG1        0.0626
     37 C           9.5102    7.4380    1.5578 C.2     1  LIG1        0.3396
     38 C          10.5909    6.9149    0.6846 C.ar    1  LIG1        0.0590
     39 C          10.6735    7.2587   -0.6510 C.ar    1  LIG1       -0.0478
     40 H          10.0583    7.8502   -1.0195 H       1  LIG1        0.0626
     41 C          11.6733    6.7216   -1.4384 C.ar    1  LIG1       -0.0610
     42 H          11.7262    6.9510   -2.3382 H       1  LIG1        0.0618
     43 C          12.5889    5.8505   -0.9009 C.ar    1  LIG1       -0.0617
     44 H          13.2607    5.4946   -1.4362 H       1  LIG1        0.0618
     45 C          12.5135    5.5039    0.4232 C.ar    1  LIG1       -0.0610
     46 H          13.1342    4.9150    0.7854 H       1  LIG1        0.0618
     47 C          11.5169    6.0300    1.2183 C.ar    1  LIG1       -0.0478
     48 H          11.4645    5.7908    2.1159 H       1  LIG1        0.0626
@<TRIPOS>BOND
     1    42    41    1
     2    36    35    1
     3    41    43   ar
     4    41    39   ar
     5    44    43    1
     6    11    25    2
     7    34    33    1
     8    40    39    1
     9    43    45   ar
    10    35    33   ar
    11    35    26   ar
    12    39    38   ar
    13    33    31   ar
    14    14    13    1
    15    25    26    1
    16    25     1    1
    17    22    21    1
    18    18    17    1
    19    26    27   ar
    20    45    46    1
    21    45    47   ar
    22     9    10    1
    23     9    23    1
    24    31    32    1
    25    31    29   ar
    26    13     1    1
    27    13    23    1
    28    13    15    1
    29    38    47   ar
    30    38    37    1
    31     6    19    1
    32     6    37    1
    33    16    15    1
    34    21    23    1
    35    21    19    1
    36    21     7    1
    37     8     7    1
    38    17    15    1
    39    17    19    1
    40    17     4    1
    41    47    48    1
    42    23    24    1
    43    15     2    1
    44    27    29   ar
    45    27    28    1
    46    19    20    1
    47     4     5    1
    48    37    12    2
    49    29    30    1
    50     2     3    1
