@<TRIPOS>MOLECULE
N,N'-diphenylurea
 28 29 0 0 0
SMALL
GASTEIGER

@<TRIPOS>ATOM
      1 O           3.4198    2.8802    4.7608 O.2     1  LIG1       -0.2522
      2 N           5.3790    2.2504    5.7787 N.am    1  LIG1       -0.2692
      3 N           5.4119    3.1069    3.6499 N.am    1  LIG1       -0.2692
      4 C           4.6548    2.7607    4.7414 C.2     1  LIG1        0.3081
      5 C           4.8374    1.8243    7.0152 C.ar    1  LIG1        0.0348
      6 C           3.8549    2.5630    7.6898 C.ar    1  LIG1       -0.0404
      7 C           3.3852    2.1235    8.9299 C.ar    1  LIG1       -0.0600
      8 C           3.9101    0.9720    9.5231 C.ar    1  LIG1       -0.0616
      9 C           4.9094    0.2481    8.8566 C.ar    1  LIG1       -0.0600
     10 C           5.3591    0.6630    7.5993 C.ar    1  LIG1       -0.0404
     11 C           4.8806    3.5827    2.4262 C.ar    1  LIG1        0.0348
     12 C           3.7802    4.4522    2.3719 C.ar    1  LIG1       -0.0404
     13 C           3.2997    4.8881    1.1309 C.ar    1  LIG1       -0.0600
     14 C           3.9169    4.4852   -0.0550 C.ar    1  LIG1       -0.0616
     15 C           5.0358    3.6501    0.0061 C.ar    1  LIG1       -0.0600
     16 C           5.5174    3.1953    1.2377 C.ar    1  LIG1       -0.0404
     17 H           6.3567    2.0875    5.5948 H       1  LIG1        0.1564
     18 H           6.3615    2.7716    3.6440 H       1  LIG1        0.1564
     19 H           3.5088    3.5091    7.2946 H       1  LIG1        0.0636
     20 H           2.6295    2.6740    9.4747 H       1  LIG1        0.0618
     21 H           3.6292    0.6703   10.5222 H       1  LIG1        0.0618
     22 H           5.3192   -0.6460    9.3081 H       1  LIG1        0.0618
     23 H           6.1319    0.1155    7.0813 H       1  LIG1        0.0636
     24 H           3.3045    4.8119    3.2754 H       1  LIG1        0.0636
     25 H           2.4658    5.5788    1.0841 H       1  LIG1        0.0618
     26 H           3.5715    4.7539   -1.0428 H       1  LIG1        0.0618
     27 H           5.5375    3.4091   -0.9218 H       1  LIG1        0.0618
     28 H           6.3673    2.5374    1.3499 H       1  LIG1        0.0636
@<TRIPOS>BOND
     1    26    14    1
     2    27    15    1
     3    14    15   ar
     4    14    13   ar
     5    15    16   ar
     6    25    13    1
     7    13    12   ar
     8    16    28    1
     9    16    11   ar
    10    12    11   ar
    11    12    24    1
    12    11     3    1
    13    18     3    1
    14     3     4   am
    15     4     1    2
    16     4     2   am
    17    17     2    1
    18     2     5    1
    19     5    10   ar
    20     5     6   ar
    21    23    10    1
    22    19     6    1
    23    10     9   ar
    24     6     7   ar
    25     9    22    1
    26     9     8   ar
    27     7    20    1
    28     7     8   ar
    29     8    21    1
