@<TRIPOS>MOLECULE
Aripiprazole hydrochloride salt
 59 61 0 0 0
SMALL
GASTEIGER

@<TRIPOS>ATOM
      1 C          10.4551   -5.8965   12.9633 C.2     1  LIG1        0.2175
      2 C          10.2833   -4.8623   14.0266 C.3     1  LIG1        0.0283
      3 H          10.7691   -5.1387   14.8190 H       1  LIG1        0.0362
      4 H           9.3445   -4.8019   14.2604 H       1  LIG1        0.0362
      5 C          10.7787   -3.4843   13.5972 C.3     1  LIG1       -0.0177
      6 H          10.5083   -2.8205   14.2509 H       1  LIG1        0.0318
      7 H          11.7477   -3.4857   13.5488 H       1  LIG1        0.0318
      8 C          10.2067   -3.1379   12.2604 C.ar    1  LIG1       -0.0255
      9 C          10.0464   -4.1559   11.3183 C.ar    1  LIG1        0.0400
     10 C           9.5555   -3.9139   10.0576 C.ar    1  LIG1        0.0016
     11 H           9.4940   -4.6055    9.4396 H       1  LIG1        0.0673
     12 C           9.1524   -2.6300    9.7114 C.ar    1  LIG1        0.1223
     13 C           9.2793   -1.5949   10.6186 C.ar    1  LIG1       -0.0196
     14 H           9.0091   -0.7325   10.3944 H       1  LIG1        0.0654
     15 C           9.8116   -1.8618   11.8627 C.ar    1  LIG1       -0.0534
     16 H           9.9124   -1.1591   12.4625 H       1  LIG1        0.0622
     17 C           8.3038   -1.1995    7.9594 C.3     1  LIG1        0.0898
     18 H           9.1284   -0.6960    7.8651 H       1  LIG1        0.0696
     19 H           7.7173   -0.7185    8.5640 H       1  LIG1        0.0696
     20 C           7.6454   -1.3746    6.6243 C.3     1  LIG1       -0.0138
     21 H           6.7688   -1.7681    6.7550 H       1  LIG1        0.0300
     22 H           8.1721   -1.9926    6.0926 H       1  LIG1        0.0300
     23 C           7.4906   -0.0674    5.8557 C.3     1  LIG1       -0.0094
     24 H           8.3255    0.4238    5.8913 H       1  LIG1        0.0318
     25 H           7.3002   -0.2666    4.9254 H       1  LIG1        0.0318
     26 C           6.3893    0.7906    6.4119 C.3     1  LIG1       -0.0317
     27 H           6.6787    1.1675    7.2574 H       1  LIG1        0.0814
     28 H           5.6118    0.2357    6.5846 H       1  LIG1        0.0814
     29 C           6.9223    3.0897    5.5411 C.3     1  LIG1       -0.0158
     30 H           7.8183    2.8149    5.2899 H       1  LIG1        0.0830
     31 H           6.9546    3.4323    6.4476 H       1  LIG1        0.0830
     32 C           6.4378    4.1764    4.5989 C.3     1  LIG1        0.0525
     33 H           7.0465    4.9310    4.6275 H       1  LIG1        0.0516
     34 H           6.4159    3.8365    3.6901 H       1  LIG1        0.0516
     35 C           4.1753    3.4787    4.8604 C.3     1  LIG1        0.0525
     36 H           4.1690    3.1770    3.9381 H       1  LIG1        0.0516
     37 H           3.2756    3.7579    5.0934 H       1  LIG1        0.0516
     38 C           4.6059    2.3448    5.7622 C.3     1  LIG1       -0.0158
     39 H           4.5422    2.6297    6.6869 H       1  LIG1        0.0830
     40 H           4.0059    1.5941    5.6393 H       1  LIG1        0.0830
     41 C           4.5993    5.8577    4.5902 C.ar    1  LIG1        0.0500
     42 C           5.2325    7.0581    4.9642 C.ar    1  LIG1        0.0802
     43 C           4.6790    8.2825    4.6267 C.ar    1  LIG1        0.0610
     44 C           3.4878    8.3653    3.9413 C.ar    1  LIG1       -0.0419
     45 H           3.1176    9.1941    3.7329 H       1  LIG1        0.0633
     46 C           2.8546    7.2034    3.5704 C.ar    1  LIG1       -0.0585
     47 H           2.0458    7.2436    3.1125 H       1  LIG1        0.0619
     48 C           3.4097    5.9739    3.8723 C.ar    1  LIG1       -0.0391
     49 H           2.9768    5.2004    3.5887 H       1  LIG1        0.0636
     50 N          10.4141   -5.4716   11.6915 N.am    1  LIG1       -0.2851
     51 H          10.5292   -6.0620   11.1012 H       1  LIG1        0.1548
     52 N           5.9983    1.9112    5.4793 N.4     1  LIG1        0.2374
     53 H           6.0113    1.6250    4.5007 H       1  LIG1        0.2034
     54 N           5.0909    4.6066    5.0039 N.pl3   1  LIG1       -0.3186
     55 O          10.5994   -7.1024   13.2184 O.2     1  LIG1       -0.2755
     56 O           8.5778   -2.5146    8.4713 O.3     1  LIG1       -0.4919
     57 CL          6.6962    7.0345    5.8873 Cl      1  LIG1       -0.0801
     58 CL          5.4612    9.7658    5.0737 Cl      1  LIG1       -0.0820
     59 CL          6.5717    1.1712    2.5118 Cl      2  LIG2        0.0000
@<TRIPOS>BOND
     1    47    46    1
     2    46    48   ar
     3    46    44   ar
     4    49    48    1
     5    34    32    1
     6    45    44    1
     7    48    41   ar
     8    36    35    1
     9    44    43   ar
    10    53    52    1
    11    41    42   ar
    12    41    54    1
    13    32    33    1
    14    32    54    1
    15    32    29    1
    16    43    42   ar
    17    43    58    1
    18    35    54    1
    19    35    37    1
    20    35    38    1
    21    25    23    1
    22    42    57    1
    23    30    29    1
    24    52    29    1
    25    52    38    1
    26    52    26    1
    27    29    31    1
    28    40    38    1
    29    38    39    1
    30    23    24    1
    31    23    26    1
    32    23    20    1
    33    22    20    1
    34    26    28    1
    35    26    27    1
    36    20    21    1
    37    20    17    1
    38    18    17    1
    39    17    56    1
    40    17    19    1
    41    56    12    1
    42    11    10    1
    43    12    10   ar
    44    12    13   ar
    45    10     9   ar
    46    14    13    1
    47    13    15   ar
    48    51    50    1
    49     9    50    1
    50     9     8   ar
    51    50     1   am
    52    15     8   ar
    53    15    16    1
    54     8     5    1
    55     1    55    2
    56     1     2    1
    57     7     5    1
    58     5     2    1
    59     5     6    1
    60     2     4    1
    61     2     3    1
