@<TRIPOS>MOLECULE
?
 29 31 0 0 0
SMALL
GASTEIGER

@<TRIPOS>ATOM
      1 I           2.2687    1.2372   17.9800 I       1  LIG1       -0.0344
      2 I           1.5011   -2.3648   17.0939 I       1  LIG1       -0.0344
      3 S          -0.5157    1.7738   16.3371 S.3     1  LIG1       -0.0725
      4 S          -1.1498   -1.0633   15.7901 S.3     1  LIG1       -0.0725
      5 S          -2.8898    2.6934   14.2871 S.3     1  LIG1       -0.0721
      6 S          -3.6076   -0.1195   13.8488 S.3     1  LIG1       -0.0721
      7 S          -3.9529    3.6106   11.6309 S.3     1  LIG1       -0.1134
      8 S          -5.0173    0.3925   11.2727 S.3     1  LIG1       -0.1134
      9 C           0.6153    0.5735   16.8795 C.2     1  LIG1        0.0712
     10 C           0.3489   -0.7018   16.6263 C.2     1  LIG1        0.0712
     11 C          -1.5273    0.6235   15.4543 C.2     1  LIG1        0.0716
     12 C          -2.5144    1.0165   14.6366 C.2     1  LIG1        0.0717
     13 C          -3.7339    2.3041   12.7763 C.2     1  LIG1        0.0664
     14 C          -4.0754    1.0288   12.6057 C.2     1  LIG1        0.0664
     15 C          -6.3417    4.1812   12.8982 C.3     1  LIG1       -0.0529
     16 H          -5.8094    4.8678   13.3071 H       1  LIG1        0.0240
     17 H          -6.3403    3.4003   13.4571 H       1  LIG1        0.0240
     18 H          -7.2421    4.4958   12.7913 H       1  LIG1        0.0240
     19 C          -5.7599    3.8296   11.5349 C.3     1  LIG1        0.0086
     20 H          -5.8894    4.6322   10.9873 H       1  LIG1        0.0413
     21 C          -6.5228    2.7246   10.8017 C.3     1  LIG1       -0.0291
     22 H          -7.4358    3.0299   10.6835 H       1  LIG1        0.0286
     23 H          -6.1362    2.6412    9.9165 H       1  LIG1        0.0286
     24 C          -6.5816    1.3427   11.4018 C.3     1  LIG1        0.0086
     25 H          -6.8274    1.4196   12.3469 H       1  LIG1        0.0413
     26 C          -7.6365    0.4662   10.6816 C.3     1  LIG1       -0.0529
     27 H          -7.6533   -0.4067   11.0811 H       1  LIG1        0.0240
     28 H          -7.4081    0.3893    9.7534 H       1  LIG1        0.0240
     29 H          -8.5019    0.8729   10.7660 H       1  LIG1        0.0240
@<TRIPOS>BOND
     1    28    26    1
     2    23    21    1
     3    26    29    1
     4    26    27    1
     5    26    24    1
     6    22    21    1
     7    21    24    1
     8    21    19    1
     9    20    19    1
    10     8    24    1
    11     8    14    1
    12    24    25    1
    13    19     7    1
    14    19    15    1
    15     7    13    1
    16    14    13    2
    17    14     6    1
    18    13     5    1
    19    18    15    1
    20    15    16    1
    21    15    17    1
    22     6    12    1
    23     5    12    1
    24    12    11    2
    25    11     4    1
    26    11     3    1
    27     4    10    1
    28     3     9    1
    29    10     9    2
    30    10     2    1
    31     9     1    1
