@<TRIPOS>MOLECULE
?
 38 39 0 0 0
SMALL
GASTEIGER

@<TRIPOS>ATOM
      1 C           2.5782    1.3365    8.6517 C.ar    1  LIG1       -0.0399
      2 H           2.4285    0.4696    9.0103 H       1  LIG1        0.0632
      3 C           3.6561    2.0718    9.0905 C.ar    1  LIG1        0.0637
      4 C           3.8696    3.3744    8.5771 C.ar    1  LIG1       -0.0470
      5 H           4.5984    3.8928    8.8981 H       1  LIG1        0.0626
      6 C           3.0346    3.8952    7.6207 C.ar    1  LIG1       -0.0533
      7 H           3.1958    4.7677    7.2821 H       1  LIG1        0.0624
      8 C           1.0689    3.6438    6.1129 C.ar    1  LIG1       -0.0540
      9 H           1.2217    4.5045    5.7406 H       1  LIG1        0.0624
     10 C           0.0181    2.8881    5.6678 C.ar    1  LIG1       -0.0612
     11 H          -0.5447    3.2223    4.9796 H       1  LIG1        0.0618
     12 C          -0.2379    1.6127    6.2240 C.ar    1  LIG1       -0.0612
     13 H          -0.9799    1.1048    5.9162 H       1  LIG1        0.0618
     14 C           0.5748    1.1042    7.2029 C.ar    1  LIG1       -0.0540
     15 H           0.3924    0.2459    7.5687 H       1  LIG1        0.0624
     16 C           1.6875    1.8494    7.6752 C.ar    1  LIG1       -0.0171
     17 C           1.9372    3.1476    7.1333 C.ar    1  LIG1       -0.0178
     18 C           4.6327    1.4477   10.0649 C.2     1  LIG1        0.3866
     19 O           4.5089    0.2262   10.2896 O.co2   1  LIG1       -0.2406
     20 O           5.5338    2.1942   10.5568 O.co2   1  LIG1       -0.2406
     21 C          -1.1120   -0.0704   10.9189 C.ar    2  LIG2        0.0320
     22 C           0.1060   -0.7316   10.7859 C.ar    2  LIG2        0.1316
     23 C           0.2899   -1.8407    9.9922 C.ar    2  LIG2       -0.0260
     24 H           1.1413   -2.2566    9.9250 H       2  LIG2        0.0646
     25 C          -0.8028   -2.3369    9.2921 C.ar    2  LIG2       -0.0590
     26 H          -0.7038   -3.1037    8.7395 H       2  LIG2        0.0618
     27 C          -2.0365   -1.7147    9.3997 C.ar    2  LIG2       -0.0611
     28 H          -2.7840   -2.0619    8.9274 H       2  LIG2        0.0618
     29 C          -2.1851   -0.5864   10.1936 C.ar    2  LIG2       -0.0508
     30 H          -3.0313   -0.1582   10.2433 H       2  LIG2        0.0623
     31 C          -1.1919    1.1530   11.7925 C.3     2  LIG2       -0.0067
     32 H          -0.5463    1.0603   12.5373 H       2  LIG2        0.0867
     33 H          -0.9302    1.9464   11.2616 H       2  LIG2        0.0867
     34 N          -2.5496    1.3699   12.3511 N.4     2  LIG2        0.2219
     35 H          -3.1371    1.5157   11.6714 H       2  LIG2        0.1997
     36 H          -2.5385    2.0941   12.9032 H       2  LIG2        0.1997
     37 H          -2.8055    0.6340   12.8215 H       2  LIG2        0.1997
     38 F           1.1668   -0.2397   11.4765 F       2  LIG2       -0.2050
@<TRIPOS>BOND
     1    11    10    1
     2    10     8   ar
     3    10    12   ar
     4     9     8    1
     5    13    12    1
     6     8    17   ar
     7    12    14   ar
     8    17     6   ar
     9    17    16   ar
    10    14    15    1
    11    14    16   ar
    12     7     6    1
    13     6     4   ar
    14    16     1   ar
    15     4     5    1
    16     4     3   ar
    17     1     2    1
    18     1     3   ar
    19    26    25    1
    20    28    27    1
    21     3    18    1
    22    25    27   ar
    23    25    23   ar
    24    27    29   ar
    25    24    23    1
    26    23    22   ar
    27    18    19   ar
    28    18    20   ar
    29    29    30    1
    30    29    21   ar
    31    22    21   ar
    32    22    38    1
    33    21    31    1
    34    33    31    1
    35    35    34    1
    36    31    34    1
    37    31    32    1
    38    34    37    1
    39    34    36    1
