@<TRIPOS>MOLECULE
?
 44 43 0 0 0
SMALL
GASTEIGER

@<TRIPOS>ATOM
      1 O          13.0218    9.1020   15.6531 O.2     1  LIG1       -0.2486
      2 O          13.3304   10.1946   17.5584 O.3     1  LIG1       -0.4791
      3 O          13.0022    6.4931   17.1175 O.2     1  LIG1       -0.2758
      4 O          12.8835    1.0885   13.2787 O.3     1  LIG1       -0.4447
      5 N          14.9413    7.2666   16.3051 N.am    1  LIG1       -0.3003
      6 H          15.6102    7.1086   15.7874 H       1  LIG1        0.1497
      7 C          11.4160    0.0346   11.8314 C.3     1  LIG1       -0.0253
      8 H          11.0535   -0.4822   12.5538 H       1  LIG1        0.0268
      9 H          11.2881   -0.4371   11.0058 H       1  LIG1        0.0268
     10 H          10.9678    0.8827   11.7873 H       1  LIG1        0.0268
     11 C          12.8930    0.2579   12.0619 C.3     1  LIG1        0.1068
     12 C          14.0230    1.4624   13.8683 C.2     1  LIG1        0.4008
     13 N          13.7841    2.1933   14.9493 N.am    1  LIG1       -0.2811
     14 H          12.9726    2.4122   15.1320 H       1  LIG1        0.1520
     15 C          14.8416    2.6323   15.8279 C.3     1  LIG1        0.0152
     16 H          15.6474    2.7822   15.3090 H       1  LIG1        0.0463
     17 H          15.0293    1.9341   16.4748 H       1  LIG1        0.0463
     18 C          14.4783    3.9018   16.5582 C.3     1  LIG1       -0.0290
     19 H          15.1943    4.1293   17.1716 H       1  LIG1        0.0285
     20 H          13.6781    3.7467   17.0831 H       1  LIG1        0.0285
     21 C          14.2359    5.0770   15.6239 C.3     1  LIG1        0.0254
     22 H          15.0050    5.1923   15.0435 H       1  LIG1        0.0359
     23 H          13.4645    4.8925   15.0661 H       1  LIG1        0.0359
     24 C          14.0018    6.3360   16.4013 C.2     1  LIG1        0.2139
     25 C          14.9189    8.5406   17.0166 C.3     1  LIG1        0.1257
     26 C          13.6369    9.2807   16.6620 C.2     1  LIG1        0.3279
     27 O          15.1348    1.1787   13.4760 O.2     1  LIG1       -0.2265
     28 C          13.5018    1.0221   10.9167 C.3     1  LIG1       -0.0253
     29 H          13.0746    1.8786   10.8419 H       1  LIG1        0.0268
     30 H          13.3772    0.5294   10.1018 H       1  LIG1        0.0268
     31 H          14.4403    1.1448   11.0773 H       1  LIG1        0.0268
     32 C          13.5875   -1.0494   12.3248 C.3     1  LIG1       -0.0253
     33 H          14.5293   -0.8953   12.4314 H       1  LIG1        0.0268
     34 H          13.4435   -1.6438   11.5858 H       1  LIG1        0.0268
     35 H          13.2348   -1.4435   13.1263 H       1  LIG1        0.0268
     36 C          15.0832    8.3204   18.5070 C.3     1  LIG1       -0.0335
     37 H          14.3513    7.7921   18.8345 H       1  LIG1        0.0256
     38 H          15.0924    9.1685   18.9569 H       1  LIG1        0.0256
     39 H          15.9096    7.8613   18.6725 H       1  LIG1        0.0256
     40 C          16.0668    9.3771   16.4523 C.3     1  LIG1       -0.0335
     41 H          16.8966    8.9127   16.5859 H       1  LIG1        0.0256
     42 H          16.0989   10.2231   16.9041 H       1  LIG1        0.0256
     43 H          15.9274    9.5197   15.5143 H       1  LIG1        0.0256
     44 H          12.6215   10.6403   17.3053 H       1  LIG1        0.2951
@<TRIPOS>BOND
     1    30    28    1
     2    29    28    1
     3    28    31    1
     4    28    11    1
     5     9     7    1
     6    34    32    1
     7    10     7    1
     8     7    11    1
     9     7     8    1
    10    11    32    1
    11    11     4    1
    12    32    33    1
    13    32    35    1
    14     4    12    1
    15    27    12    2
    16    12    13   am
    17    13    14    1
    18    13    15    1
    19    22    21    1
    20    23    21    1
    21    16    15    1
    22    43    40    1
    23    21    24    1
    24    21    18    1
    25     1    26    2
    26     6     5    1
    27    15    17    1
    28    15    18    1
    29     5    24   am
    30     5    25    1
    31    24     3    2
    32    40    41    1
    33    40    42    1
    34    40    25    1
    35    18    20    1
    36    18    19    1
    37    26    25    1
    38    26     2    1
    39    25    36    1
    40    44     2    1
    41    36    39    1
    42    36    37    1
    43    36    38    1
