@<TRIPOS>MOLECULE
?
 39 42 0 0 0
SMALL
GASTEIGER

@<TRIPOS>ATOM
      1 N           2.0191    1.6940    1.5583 N.pl3   1  LIG1       -0.3314
      2 N           3.2010    0.6864   -1.9061 N.1     1  LIG1       -0.1906
      3 O           1.5340   -2.1997   -1.1938 O.2     1  LIG1       -0.2441
      4 S           0.5965   -0.5762    4.9804 S.3     1  LIG1       -0.1237
      5 C           0.5770   -1.6101    2.0784 C.3     1  LIG1        0.1966
      6 O           0.8581   -2.2451    0.9059 O.3     1  LIG1       -0.4437
      7 C           1.3838   -1.5597   -0.1743 C.2     1  LIG1        0.3521
      8 C           1.7685   -0.1936    0.0438 C.2     1  LIG1        0.1530
      9 C           1.5921    0.4398    1.2805 C.2     1  LIG1        0.0435
     10 C           0.8566   -0.2965    2.2849 C.3     1  LIG1        0.0832
     11 C           0.1859    0.3344    3.4787 C.3     1  LIG1        0.0144
     12 C           0.0284   -2.1451    4.4422 C.ar    1  LIG1        0.0150
     13 C          -0.3488   -3.0749    5.4111 C.ar    1  LIG1       -0.0479
     14 C          -0.7676   -4.3415    5.0357 C.ar    1  LIG1       -0.0607
     15 C          -0.8297   -4.6957    3.6912 C.ar    1  LIG1       -0.0613
     16 C          -0.4509   -3.7826    2.7243 C.ar    1  LIG1       -0.0536
     17 C           0.0018   -2.5026    3.0781 C.ar    1  LIG1        0.0144
     18 C           2.5576    0.3241   -1.0243 C.1     1  LIG1        0.1079
     19 C           2.7036    2.0050    2.8254 C.3     1  LIG1        0.0120
     20 C           2.2988    3.3709    3.3632 C.3     1  LIG1       -0.0372
     21 C           2.5144    4.4506    2.3082 C.3     1  LIG1       -0.0502
     22 C           1.8274    4.0557    1.0109 C.3     1  LIG1       -0.0372
     23 C           2.2871    2.6918    0.5177 C.3     1  LIG1        0.0120
     24 H           0.4468    1.2672    3.6354 H       1  LIG1        0.0390
     25 H          -0.7673    0.3233    3.3560 H       1  LIG1        0.0390
     26 H          -0.2981   -2.8067    6.3403 H       1  LIG1        0.0629
     27 H          -1.0119   -4.9568    5.7535 H       1  LIG1        0.0618
     28 H          -1.1243   -5.5678    3.4234 H       1  LIG1        0.0618
     29 H          -0.4938   -4.0202    1.7947 H       1  LIG1        0.0622
     30 H           3.6530    1.9912    2.6085 H       1  LIG1        0.0464
     31 H           2.5602    1.2898    3.4427 H       1  LIG1        0.0464
     32 H           2.8321    3.5245    4.1516 H       1  LIG1        0.0280
     33 H           1.3395    3.3464    3.6472 H       1  LIG1        0.0280
     34 H           3.4522    4.5546    2.1202 H       1  LIG1        0.0266
     35 H           2.1460    5.3197    2.6278 H       1  LIG1        0.0266
     36 H           1.9856    4.7058    0.3266 H       1  LIG1        0.0280
     37 H           0.8756    4.0048    1.1340 H       1  LIG1        0.0280
     38 H           3.2413    2.7090    0.2881 H       1  LIG1        0.0464
     39 H           1.8039    2.4486   -0.2720 H       1  LIG1        0.0464
@<TRIPOS>BOND
     1     2    18    3
     2     3     7    2
     3    18     8    1
     4    39    23    1
     5     7     8    1
     6     7     6    1
     7     8     9    2
     8    38    23    1
     9    36    22    1
    10    23    22    1
    11    23     1    1
    12     6     5    1
    13    22    37    1
    14    22    21    1
    15     9     1    1
    16     9    10    1
    17     1    19    1
    18    29    16    1
    19     5    10    1
    20     5    17    1
    21    34    21    1
    22    10    11    1
    23    21    35    1
    24    21    20    1
    25    30    19    1
    26    16    17   ar
    27    16    15   ar
    28    19    20    1
    29    19    31    1
    30    17    12   ar
    31    25    11    1
    32    20    33    1
    33    20    32    1
    34    28    15    1
    35    11    24    1
    36    11     4    1
    37    15    14   ar
    38    12     4    1
    39    12    13   ar
    40    14    13   ar
    41    14    27    1
    42    13    26    1
