@<TRIPOS>MOLECULE
?
 19 18 0 0 0
SMALL
GASTEIGER

@<TRIPOS>ATOM
      1 CL          2.9425    0.3058   14.7445 Cl      1  LIG1        0.0000
      2 O           3.1980    2.8501   19.9563 O.3     2  LIG2       -0.5064
      3 O           1.5382    2.4496   16.1775 O.3     2  LIG2       -0.3668
      4 C           0.2520    5.4712   18.6430 C.ar    2  LIG2       -0.0611
      5 C           0.7875    5.5925   19.9256 C.ar    2  LIG2       -0.0583
      6 C           2.2029    2.5755   17.2913 C.3     2  LIG2        0.1920
      7 C           1.7307    3.5978   18.2293 C.ar    2  LIG2        0.0444
      8 C           2.2401    3.7159   19.5356 C.ar    2  LIG2        0.1242
      9 N           3.2301    1.8284   17.5426 N.3     2  LIG2       -0.2957
     10 C           1.7640    4.7298   20.3697 C.ar    2  LIG2       -0.0198
     11 C           0.7278    4.4822   17.8061 C.ar    2  LIG2       -0.0509
     12 H           2.1288    4.8029   21.2249 H       2  LIG2        0.0654
     13 H           0.3816    4.3832   16.9261 H       2  LIG2        0.0623
     14 H           3.6100    1.9170   18.3089 H       2  LIG2        0.1213
     15 H           0.4651    6.2691   20.4837 H       2  LIG2        0.0619
     16 H          -0.4420    6.0463   18.3547 H       2  LIG2        0.0618
     17 H           3.4608    1.2331   16.9799 H       2  LIG2        0.1213
     18 H           3.1580    2.7512   20.7580 H       2  LIG2        0.2921
     19 H           1.9218    1.8341   15.6575 H       2  LIG2        0.2122
@<TRIPOS>BOND
     1    19     3    1
     2     3     6    1
     3    13    11    1
     4    17     9    1
     5     6     9    1
     6     6     7    1
     7     9    14    1
     8    11     7   ar
     9    11     4   ar
    10     7     8   ar
    11    16     4    1
    12     4     5   ar
    13     8     2    1
    14     8    10   ar
    15     5    10   ar
    16     5    15    1
    17     2    18    1
    18    10    12    1
