@<TRIPOS>MOLECULE
?
 15 14 0 0 0
SMALL
GASTEIGER

@<TRIPOS>ATOM
      1 I           9.4460   -4.1075    0.0000 I       1  LIG1       -0.0427
      2 O           8.3748   -4.0040  -11.1989 O.2     1  LIG1       -0.1431
      3 N           9.4460   -4.1075  -10.6186 N.2     1  LIG1       -0.0284
      4 C           9.4460   -4.1075   -2.1067 C.2     1  LIG1        0.0265
      5 C           8.5278   -3.3484   -2.7850 C.2     1  LIG1       -0.0470
      6 H           7.9063   -2.8407   -2.3155 H       1  LIG1        0.0628
      7 C           8.5260   -3.3369   -4.1760 C.2     1  LIG1       -0.0524
      8 H           7.9082   -2.8120   -4.6296 H       1  LIG1        0.0624
      9 C           9.4460   -4.1075   -4.9046 C.2     1  LIG1       -0.0095
     10 C           9.4460   -4.1075   -6.3979 C.2     1  LIG1       -0.0095
     11 C           8.2549   -3.9662   -7.1021 C.2     1  LIG1       -0.0513
     12 H           7.4548   -3.8569   -6.6398 H       1  LIG1        0.0624
     13 C           8.2501   -3.9884   -8.4830 C.2     1  LIG1       -0.0302
     14 H           7.4529   -3.9227   -8.9582 H       1  LIG1        0.0641
     15 C           9.4460   -4.1075   -9.1325 C.2     1  LIG1        0.1360
@<TRIPOS>BOND
     1     2     3    2
     2     3    15    1
     3    15    13    2
     4    14    13    1
     5    13    11    1
     6    11    12    1
     7    11    10    2
     8    10     9    1
     9     9     7    2
    10     8     7    1
    11     7     5    1
    12     5     6    1
    13     5     4    2
    14     4     1    1
