@<TRIPOS>MOLECULE
3-picoline chloranilate hemihydrate
 52 50 0 0 0
SMALL
GASTEIGER

@<TRIPOS>ATOM
      1 C           5.5521   10.6184   11.6271 C.2     1  LIG1        0.2727
      2 C           5.6921   11.1792   13.0537 C.2     1  LIG1        0.2313
      3 C           4.6855   10.9071   13.9867 C.3     1  LIG1        0.1671
      4 CL          4.8124   11.5610   15.5884 Cl      1  LIG1       -0.1048
      5 O           6.7193   11.8535   13.2787 O.2     1  LIG1       -0.2865
      6 O           6.4631   10.9228   10.8187 O.2     1  LIG1       -0.2799
      7 C           6.8946    3.9734    9.5764 C.3     2  LIG2        0.2088
      8 C           7.0762    5.3836    9.4751 C.2     2  LIG2        0.2296
      9 C           6.7318    6.0471    8.1573 C.2     2  LIG2        0.1841
     10 C           6.2854    5.3303    7.1066 C.2     2  LIG2        0.1359
     11 C           6.1146    3.8901    7.1953 C.2     2  LIG2        0.2452
     12 C           6.4443    3.1894    8.5295 C.2     2  LIG2        0.2348
     13 O           6.2669    1.9340    8.5600 O.2     2  LIG2       -0.2861
     14 O           5.7198    3.2016    6.2637 O.2     2  LIG2       -0.2824
     15 CL          5.9322    6.1021    5.6016 Cl      2  LIG2       -0.0755
     16 O           6.8787    7.3471    8.0850 O.2     2  LIG2       -0.5023
     17 O           7.4899    6.1131   10.3754 O.2     2  LIG2       -0.2863
     18 CL          7.2709    3.2427   11.1049 Cl      2  LIG2       -0.0980
     19 C          10.7009   13.6272   11.9233 C.2     3  LIG3       -0.0512
     20 C          11.1567   13.4608   10.6233 C.3     3  LIG3        0.0108
     21 C          10.3922   12.7819    9.6890 C.2     3  LIG3       -0.0622
     22 C           9.1807   12.2568   10.0650 C.2     3  LIG3       -0.0101
     23 N           8.7716   12.3918   11.3309 N.pl3   3  LIG3       -0.3267
     24 C           9.4779   13.0607   12.2524 C.2     3  LIG3       -0.0072
     25 C          11.4779   14.3980   12.9601 C.3     3  LIG3       -0.0417
     26 C           5.1556   -0.7923    4.5559 C.2     4  LIG4       -0.0512
     27 C           5.3770    0.3236    5.3357 C.2     4  LIG4       -0.0072
     28 N           5.6890    0.2113    6.6319 N.pl3   4  LIG4       -0.3267
     29 C           5.8063   -0.9886    7.2472 C.2     4  LIG4       -0.0101
     30 C           5.6100   -2.1311    6.5117 C.2     4  LIG4       -0.0622
     31 C           5.2755   -2.0390    5.1699 C.3     4  LIG4        0.0108
     32 C           4.7918   -0.6549    3.0976 C.3     4  LIG4       -0.0417
     33 O           8.0194    8.9761    9.6856 O.3     5  HOH5       -0.4105
     34 H          11.1609   15.2234   13.0639 H       3  LIG3        0.0275
     35 H          12.3912   14.4483   12.6841 H       3  LIG3        0.0275
     36 H          11.4230   14.0407   13.8361 H       3  LIG3        0.0275
     37 H           3.7159   -0.5691    3.0001 H       4  LIG4        0.0275
     38 H           5.1240   -1.4175    2.6204 H       4  LIG4        0.0275
     39 H           5.2039    0.1603    2.7343 H       4  LIG4        0.0275
     40 H           8.5909    8.8517   10.3169 H       0  HOH0        0.2052
     41 H           7.4711    9.4175   10.0004 H       0  HOH0        0.2052
     42 H          11.9626   13.8253   10.3549 H       3  LIG3        0.0398
     43 H          10.6966   12.6768    8.8991 H       3  LIG3        0.0591
     44 H           8.6240   11.7890    9.4941 H       3  LIG3        0.0778
     45 H           9.2210   13.1637   13.1525 H       3  LIG3        0.0781
     46 H           5.3248    1.2173    4.9369 H       4  LIG4        0.0781
     47 H           6.0816   -0.9365    8.2029 H       4  LIG4        0.0778
     48 H           5.6276   -2.9744    6.9370 H       4  LIG4        0.0591
     49 H           5.1302   -2.8919    4.6711 H       4  LIG4        0.0398
     50 H           7.2505    7.6766    8.7092 H       2  LIG2        0.2923
     51 H           8.0332   12.0540   11.5575 H       3  LIG3        0.1511
     52 H           6.0230    1.0116    7.1269 H       4  LIG4        0.1511
@<TRIPOS>BOND
     1    38    32    1
     2    39    32    1
     3    37    32    1
     4    32    26    1
     5    26    31    1
     6    26    27    2
     7    49    31    1
     8    46    27    1
     9    31    30    1
    10    27    28    1
    11    15    10    1
    12    14    11    2
    13    30    48    1
    14    30    29    2
    15    28    52    1
    16    28    29    1
    17    10    11    1
    18    10     9    2
    19    11    12    1
    20    29    47    1
    21    16     9    1
    22    16    50    1
    23     9     8    1
    24    12    13    2
    25    12     7    1
    26    43    21    1
    27     8     7    1
    28     8    17    2
    29    44    22    1
    30     7    18    1
    31    33    41    1
    32    33    40    1
    33    21    22    2
    34    21    20    1
    35    22    23    1
    36    42    20    1
    37    20    19    1
    38     6     1    2
    39    23    51    1
    40    23    24    1
    41     1     2    1
    42    19    24    2
    43    19    25    1
    44    24    45    1
    45    35    25    1
    46    25    34    1
    47    25    36    1
    48     2     5    2
    49     2     3    1
    50     3     4    1
