@<TRIPOS>MOLECULE
?
 74 73 0 0 0
SMALL
GASTEIGER

@<TRIPOS>ATOM
      1 O           1.3642    1.4857    5.3375 O.3     1  LIG1       -0.4914
      2 O           5.7582    4.4163   10.9152 O.3     1  LIG1       -0.5028
      3 H           5.8855    4.1904   11.7137 H       1  LIG1        0.2923
      4 O          -1.9581    1.2032    6.6017 O.2     1  LIG1       -0.4883
      5 O           7.1215    5.6060   12.9037 O.3     1  LIG1       -0.5033
      6 H           7.4857    6.1012   13.4764 H       1  LIG1        0.2923
      7 O           6.0354    5.8148    7.0417 O.2     1  LIG1       -0.2697
      8 C          -0.6528    3.1749    7.0027 C.2     1  LIG1       -0.0157
      9 N           4.6638    4.6988    8.4743 N.am    1  LIG1       -0.2814
     10 H           4.4794    4.6023    9.3288 H       1  LIG1        0.1551
     11 C           2.6036    3.5462    8.0881 C.ar    1  LIG1       -0.0335
     12 H           2.3301    3.8345    8.9509 H       1  LIG1        0.0640
     13 O           5.5527    6.2625    4.3264 O.3     1  LIG1       -0.3982
     14 H           5.6411    6.0609    5.1371 H       1  LIG1        0.2090
     15 C           2.6264    3.2722    3.2150 C.3     1  LIG1        0.0135
     16 C           0.3646    2.3834    7.8117 C.3     1  LIG1        0.0012
     17 H           0.2712    2.6034    8.7716 H       1  LIG1        0.0361
     18 H           0.2009    1.4136    7.6996 H       1  LIG1        0.0361
     19 C           3.6829    2.5634    4.0524 C.3     1  LIG1       -0.0134
     20 H           3.6759    1.5943    3.8524 H       1  LIG1        0.0323
     21 H           4.5798    2.9199    3.8331 H       1  LIG1        0.0323
     22 C           1.7666    2.7203    7.3451 C.ar    1  LIG1        0.0004
     23 C           4.2169    3.6007    6.2916 C.ar    1  LIG1       -0.0338
     24 H           5.0418    3.9106    5.9350 H       1  LIG1        0.0640
     25 C           3.3823    2.7885    5.5238 C.ar    1  LIG1       -0.0028
     26 C           3.8373    3.9565    7.5852 C.ar    1  LIG1        0.0344
     27 C          -1.7586    2.5615    6.4108 C.2     1  LIG1        0.1617
     28 C           2.4288    4.6409    3.3767 C.2     1  LIG1       -0.0758
     29 H           3.0398    5.1454    3.9016 H       1  LIG1        0.0578
     30 C           6.4000    5.5852   10.6688 C.ar    1  LIG1        0.1706
     31 C           7.1141    6.2401   11.6940 C.ar    1  LIG1        0.1590
     32 C           5.6849    5.5233    8.2001 C.2     1  LIG1        0.2519
     33 C          -0.4573    4.5342    6.7737 C.3     1  LIG1       -0.0013
     34 H           0.3013    4.9646    7.1477 H       1  LIG1        0.0359
     35 C           1.3508    5.2735    2.7779 C.2     1  LIG1       -0.0654
     36 H           1.2220    6.2086    2.8893 H       1  LIG1        0.0615
     37 C           2.1968    2.3018    6.0807 C.ar    1  LIG1        0.1272
     38 C           7.0441    7.3454    9.1483 C.ar    1  LIG1       -0.0459
     39 H           7.0405    7.7231    8.2760 H       1  LIG1        0.0626
     40 C           1.8132    0.1216    5.2303 C.3     1  LIG1        0.0894
     41 H           2.7854    0.1174    5.0440 H       1  LIG1        0.0696
     42 H           1.3559   -0.3073    4.4640 H       1  LIG1        0.0696
     43 C           1.5494   -0.6895    6.4742 C.3     1  LIG1       -0.0215
     44 H           0.5725   -0.7843    6.6046 H       1  LIG1        0.0295
     45 H           1.9183   -0.2165    7.2619 H       1  LIG1        0.0295
     46 C           7.7482    7.4405   11.4432 C.ar    1  LIG1       -0.0165
     47 H           8.2122    7.8864   12.1425 H       1  LIG1        0.0655
     48 C          -3.0445    0.9180    7.4971 C.3     1  LIG1        0.0895
     49 H          -3.8600    1.3999    7.2075 H       1  LIG1        0.0696
     50 H          -2.8155    1.2146    8.4131 H       1  LIG1        0.0696
     51 C           7.7090    7.9976   10.1702 C.ar    1  LIG1       -0.0574
     52 H           8.1385    8.8276   10.0019 H       1  LIG1        0.0619
     53 C           6.3789    6.1379    9.3808 C.ar    1  LIG1        0.0820
     54 C          -3.2909   -0.5703    7.4822 C.3     1  LIG1       -0.0215
     55 H          -2.4908   -1.0393    7.8331 H       1  LIG1        0.0295
     56 H          -3.4382   -0.8696    6.5502 H       1  LIG1        0.0295
     57 C           2.1865   -2.0745    6.3667 C.3     1  LIG1       -0.0622
     58 H           1.7643   -2.5722    5.6363 H       1  LIG1        0.0231
     59 H           2.0589   -2.5594    7.2092 H       1  LIG1        0.0231
     60 H           3.1436   -1.9805    6.1864 H       1  LIG1        0.0231
     61 C           5.8188    7.6359    4.1526 C.3     1  LIG1        0.0330
     62 H           5.0820    8.1625    4.5308 H       1  LIG1        0.0521
     63 H           5.9022    7.8341    3.1969 H       1  LIG1        0.0521
     64 H           6.6555    7.8680    4.6099 H       1  LIG1        0.0521
     65 C          -4.5021   -0.9366    8.3259 C.3     1  LIG1       -0.0622
     66 H          -4.3254   -0.7155    9.2637 H       1  LIG1        0.0231
     67 H          -4.6769   -1.8971    8.2444 H       1  LIG1        0.0231
     68 H          -5.2829   -0.4339    8.0124 H       1  LIG1        0.0231
     69 O           8.1717    2.0710    6.0937 O.3     2  LIG2       -0.3982
     70 H           8.9420    1.8695    6.3604 H       2  LIG2        0.2090
     71 C           7.2156    1.3678    6.8474 C.3     2  LIG2        0.0330
     72 H           7.2447    1.6723    7.7787 H       2  LIG2        0.0521
     73 H           7.4121    0.4082    6.8120 H       2  LIG2        0.0521
     74 H           6.3240    1.5320    6.4781 H       2  LIG2        0.0521
@<TRIPOS>BOND
     1    35    36    1
     2    35    28    2
     3    63    61    1
     4    15    28    1
     5    15    19    1
     6    28    29    1
     7    21    19    1
     8    20    19    1
     9    19    25    1
    10    61    13    1
    11    61    62    1
    12    61    64    1
    13    13    14    1
    14    42    40    1
    15    41    40    1
    16    40     1    1
    17    40    43    1
    18     1    37    1
    19    25    37   ar
    20    25    23   ar
    21    58    57    1
    22    24    23    1
    23    37    22   ar
    24    69    70    1
    25    69    71    1
    26    60    57    1
    27    23    26   ar
    28    57    43    1
    29    57    59    1
    30    27     4    1
    31    27     8    2
    32    43    44    1
    33    43    45    1
    34    74    71    1
    35    56    54    1
    36     4    48    1
    37    33     8    1
    38    33    34    1
    39    73    71    1
    40    71    72    1
    41     8    16    1
    42     7    32    2
    43    49    48    1
    44    22    16    1
    45    22    11   ar
    46    54    48    1
    47    54    55    1
    48    54    65    1
    49    48    50    1
    50    26    11   ar
    51    26     9    1
    52    18    16    1
    53    16    17    1
    54    68    65    1
    55    11    12    1
    56    32     9   am
    57    32    53    1
    58    67    65    1
    59    39    38    1
    60    65    66    1
    61     9    10    1
    62    38    53   ar
    63    38    51   ar
    64    53    30   ar
    65    52    51    1
    66    51    46   ar
    67    30     2    1
    68    30    31   ar
    69     2     3    1
    70    46    31   ar
    71    46    47    1
    72    31     5    1
    73     5     6    1
