@<TRIPOS>MOLECULE
(4-Hydroxyphenolato)(subphthalocyaninato)boron
 56 65 0 0 0
SMALL
GASTEIGER

@<TRIPOS>ATOM
      1 O           3.2714    7.6001    4.7810 O.3     1  LIG1        0.0000
      2 O           0.1923    4.9160    8.5104 O.3     1  LIG1        0.0000
      3 H           0.1165    4.0147    8.3493 H       1  LIG1        0.0000
      4 N           5.2026    6.2516    3.8575 N.ar    1  LIG1        0.0000
      5 N           6.7912    8.0305    3.8126 N.ar    1  LIG1        0.0000
      6 N           4.5956    8.3564    2.9721 N.ar    1  LIG1        0.0000
      7 N           2.9357    8.4562    1.2758 N.ar    1  LIG1        0.0000
      8 N           3.2536    6.4724    2.5478 N.ar    1  LIG1        0.0000
      9 N           4.2122    4.3272    2.8620 N.ar    1  LIG1        0.0000
     10 C           5.2104    4.9187    3.5503 C.ar    1  LIG1        0.0000
     11 C           6.5590    4.4451    3.8224 C.ar    1  LIG1        0.0000
     12 C           7.1459    3.1891    3.6708 C.ar    1  LIG1        0.0000
     13 H           6.6296    2.4304    3.4239 H       1  LIG1        0.0000
     14 C           8.5089    3.0891    3.8928 C.ar    1  LIG1        0.0000
     15 H           8.9325    2.2434    3.8101 H       1  LIG1        0.0000
     16 C           9.2744    4.2090    4.2374 C.ar    1  LIG1        0.0000
     17 H          10.2072    4.1032    4.3824 H       1  LIG1        0.0000
     18 C           8.7122    5.4670    4.3740 C.ar    1  LIG1        0.0000
     19 H           9.2420    6.2205    4.6041 H       1  LIG1        0.0000
     20 C           7.3382    5.5860    4.1618 C.ar    1  LIG1        0.0000
     21 C           6.4677    6.7487    4.0553 C.ar    1  LIG1        0.0000
     22 C           5.8658    8.7932    3.2007 C.ar    1  LIG1        0.0000
     23 C           6.0202    9.9886    2.3795 C.ar    1  LIG1        0.0000
     24 C           7.0925   10.8616    2.1934 C.ar    1  LIG1        0.0000
     25 H           7.8911   10.7745    2.7012 H       1  LIG1        0.0000
     26 C           6.9537   11.8573    1.2444 C.ar    1  LIG1        0.0000
     27 H           7.6623   12.4773    1.1175 H       1  LIG1        0.0000
     28 C           5.7971   11.9745    0.4661 C.ar    1  LIG1        0.0000
     29 H           5.7412   12.6690   -0.1796 H       1  LIG1        0.0000
     30 C           4.7323   11.1011    0.6145 C.ar    1  LIG1        0.0000
     31 H           3.9553   11.1762    0.0736 H       1  LIG1        0.0000
     32 C           4.8425   10.1080    1.5868 C.ar    1  LIG1        0.0000
     33 C           3.9781    8.9911    1.9334 C.ar    1  LIG1        0.0000
     34 C           2.6367    7.1751    1.5493 C.ar    1  LIG1        0.0000
     35 C           1.9235    6.1808    0.7590 C.ar    1  LIG1        0.0000
     36 C           1.0130    6.2915   -0.2879 C.ar    1  LIG1        0.0000
     37 H           0.7619    7.1424   -0.6296 H       1  LIG1        0.0000
     38 C           0.4842    5.1276   -0.8172 C.ar    1  LIG1        0.0000
     39 H          -0.1826    5.1833   -1.4918 H       1  LIG1        0.0000
     40 C           0.9130    3.8681   -0.3765 C.ar    1  LIG1        0.0000
     41 H           0.5459    3.0883   -0.7756 H       1  LIG1        0.0000
     42 C           1.8593    3.7313    0.6274 C.ar    1  LIG1        0.0000
     43 H           2.1708    2.8752    0.8979 H       1  LIG1        0.0000
     44 C           2.3381    4.8981    1.2269 C.ar    1  LIG1        0.0000
     45 C           3.2763    5.1311    2.3172 C.ar    1  LIG1        0.0000
     46 C           2.5552    6.8519    5.6703 C.ar    1  LIG1        0.0000
     47 C           1.7662    7.5622    6.5723 C.ar    1  LIG1        0.0000
     48 H           1.7543    8.5121    6.5395 H       1  LIG1        0.0000
     49 C           1.0012    6.9010    7.5139 C.ar    1  LIG1        0.0000
     50 H           0.4712    7.4006    8.1243 H       1  LIG1        0.0000
     51 C           0.9996    5.5122    7.5770 C.ar    1  LIG1        0.0000
     52 C           1.8149    4.8011    6.7103 C.ar    1  LIG1        0.0000
     53 H           1.8484    3.8538    6.7666 H       1  LIG1        0.0000
     54 C           2.5871    5.4661    5.7557 C.ar    1  LIG1        0.0000
     55 H           3.1367    4.9679    5.1623 H       1  LIG1        0.0000
     56 B           4.0180    7.1538    3.6470 B       1  LIG1        0.0000
@<TRIPOS>BOND
     1    39    38    1
     2    38    40   ar
     3    38    36   ar
     4    41    40    1
     5    37    36    1
     6    40    42   ar
     7    36    35   ar
     8    29    28    1
     9    31    30    1
    10    28    30   ar
    11    28    26   ar
    12    30    32   ar
    13    42    43    1
    14    42    44   ar
    15    35    44   ar
    16    35    34   ar
    17    27    26    1
    18    44    45   ar
    19    26    24   ar
    20     7    34   ar
    21     7    33   ar
    22    34     8   ar
    23    32    33   ar
    24    32    23   ar
    25    33     6   ar
    26    24    23   ar
    27    24    25    1
    28    45     8   ar
    29    45     9   ar
    30    23    22   ar
    31     8    56    1
    32     9    10   ar
    33     6    22   ar
    34     6    56    1
    35    22     5   ar
    36    13    12    1
    37    10    11   ar
    38    10     4   ar
    39    56     4    1
    40    56     1    1
    41    12    11   ar
    42    12    14   ar
    43    15    14    1
    44     5    21   ar
    45    11    20   ar
    46     4    21   ar
    47    14    16   ar
    48    21    20   ar
    49    20    18   ar
    50    16    18   ar
    51    16    17    1
    52    18    19    1
    53     1    46    1
    54    55    54    1
    55    46    54   ar
    56    46    47   ar
    57    54    52   ar
    58    48    47    1
    59    47    49   ar
    60    52    53    1
    61    52    51   ar
    62    49    51   ar
    63    49    50    1
    64    51     2    1
    65     3     2    1
