@<TRIPOS>MOLECULE
3-picoline chloranilate
 28 26 0 0 0
SMALL
GASTEIGER

@<TRIPOS>ATOM
      1 C          -2.3707    2.7323    5.2304 C.3     1  LIG1        0.2032
      2 C          -1.3095    3.8083    5.3606 C.2     1  LIG1        0.1964
      3 C          -1.1058    4.4065    6.6725 C.3     1  LIG1        0.1616
      4 CL          0.1115    5.6281    6.7955 Cl      1  LIG1       -0.1052
      5 O          -0.6696    4.1206    4.3690 O.2     1  LIG1       -0.2921
      6 O          -2.5378    2.1631    4.0611 O.3     1  LIG1       -0.3749
      7 C          -1.2977    3.5327    1.0244 C.2     2  LIG2        0.2313
      8 C          -0.2174    3.4039   -0.0690 C.2     2  LIG2        0.2727
      9 C          -2.1065    4.6526    1.0284 C.3     2  LIG2        0.1671
     10 CL         -3.3557    4.7738    2.2300 Cl      2  LIG2       -0.1048
     11 O           0.4874    2.3878   -0.0442 O.2     2  LIG2       -0.2799
     12 O          -1.3554    2.5625    1.8442 O.2     2  LIG2       -0.2865
     13 C           0.2606   -1.2390    3.6292 C.2     3  LIG3       -0.0512
     14 C          -0.1701   -0.0299    3.1133 C.2     3  LIG3       -0.0072
     15 N           0.4557    0.5394    2.0750 N.pl3   3  LIG3       -0.3267
     16 C           1.5304   -0.0105    1.5002 C.2     3  LIG3       -0.0101
     17 C           2.0050   -1.2301    1.9488 C.2     3  LIG3       -0.0622
     18 C           1.3610   -1.8487    3.0154 C.3     3  LIG3        0.0108
     19 C          -0.4515   -1.8527    4.7999 C.3     3  LIG3       -0.0417
     20 H          -0.9405    0.4412    3.4449 H       3  LIG3        0.0781
     21 H           1.9069    0.5215    0.8512 H       3  LIG3        0.0778
     22 H           2.7635   -1.5946    1.5438 H       3  LIG3        0.0591
     23 H           1.6792   -2.7055    3.3345 H       3  LIG3        0.0398
     24 H          -0.7246   -2.7143    4.6079 H       3  LIG3        0.0275
     25 H           0.1508   -1.8769    5.5760 H       3  LIG3        0.0275
     26 H          -1.2478   -1.3032    5.0121 H       3  LIG3        0.0275
     27 H           0.1136    1.3247    1.7556 H       3  LIG3        0.1511
     28 H          -2.0353    2.5027    3.3137 H       1  LIG1        0.2110
@<TRIPOS>BOND
     1     8    11    2
     2     8     7    1
     3    21    16    1
     4     7     9    1
     5     7    12    2
     6     9    10    1
     7    16    17    2
     8    16    15    1
     9    22    17    1
    10    27    15    1
    11    17    18    1
    12    15    14    1
    13    18    23    1
    14    18    13    1
    15    14    20    1
    16    14    13    2
    17    28     6    1
    18    13    19    1
    19     6     1    1
    20     5     2    2
    21    24    19    1
    22    19    26    1
    23    19    25    1
    24     1     2    1
    25     2     3    1
    26     3     4    1
