@<TRIPOS>MOLECULE
?
 20 19 0 0 0
SMALL
GASTEIGER

@<TRIPOS>ATOM
      1 N           0.9799    2.2471    3.6222 N.ar    1  LIG1       -0.2632
      2 C           0.4428   -1.0071    7.1077 C.3     2  LIG2        0.0548
      3 H           0.0786   -0.7064    7.9548 H       2  LIG2        0.0383
      4 H          -0.0762   -1.7760    6.8252 H       2  LIG2        0.0383
      5 C           0.5495    4.2067    1.6866 C.ar    1  LIG1       -0.0442
      6 C           0.2532    0.0891    6.0959 C.2     2  LIG2        0.3052
      7 O           1.3385    0.4218    5.4483 O.3     2  LIG2       -0.4806
      8 H           1.1558    1.0682    4.7769 H       2  LIG2        0.2951
      9 O          -0.8181    0.6035    5.9008 O.2     2  LIG2       -0.2510
     10 C           1.7715    3.5786    1.8141 C.ar    1  LIG1       -0.0404
     11 H           2.4746    3.8016    1.2466 H       1  LIG1        0.0635
     12 C           1.9440    2.6177    2.7878 C.ar    1  LIG1        0.0278
     13 H           2.7749    2.2092    2.8644 H       1  LIG1        0.0829
     14 C          -0.4504    3.8188    2.5560 C.ar    1  LIG1       -0.0404
     15 H          -1.2905    4.2155    2.5091 H       1  LIG1        0.0635
     16 C           0.2958    5.2350    0.6231 C.3     1  LIG1       -0.0236
     17 H           1.1289    5.6755    0.3972 H       1  LIG1        0.0316
     18 H          -0.3137    5.9074    0.9664 H       1  LIG1        0.0316
     19 C          -0.1987    2.8427    3.4925 C.ar    1  LIG1        0.0278
     20 H          -0.8876    2.5882    4.0619 H       1  LIG1        0.0829
@<TRIPOS>BOND
     1    17    16    1
     2    16    18    1
     3    16     5    1
     4    11    10    1
     5     5    10   ar
     6     5    14   ar
     7    10    12   ar
     8    15    14    1
     9    14    19   ar
    10    12    13    1
    11    12     1   ar
    12    19     1   ar
    13    19    20    1
    14     8     7    1
    15     7     6    1
    16     9     6    2
    17     6     2    1
    18     4     2    1
    19     2     3    1
