@<TRIPOS>MOLECULE
?
 34 35 0 0 0
SMALL
GASTEIGER

@<TRIPOS>ATOM
      1 S          10.4279    7.7134    0.5079 S.O2    1  LIG1        0.0010
      2 O           5.7621    4.8648    2.6619 O.3     1  LIG1       -0.4951
      3 O          11.2265    6.7584   -0.2301 O.2     1  LIG1       -0.1690
      4 O          10.0088    8.9188   -0.1684 O.2     1  LIG1       -0.1690
      5 O          15.9023   12.1710   -0.2010 O.2     1  LIG1       -0.1261
      6 O          16.9522   10.2886   -0.4249 O.2     1  LIG1       -0.1261
      7 N          15.9813   10.9494   -0.0711 N.pl3   1  LIG1        0.0564
      8 C           4.5559    5.5636    3.0205 C.3     1  LIG1        0.0788
      9 H           4.7558    6.2257    3.6867 H       1  LIG1        0.0660
     10 H           3.9164    4.9386    3.3710 H       1  LIG1        0.0660
     11 H           4.1912    5.9926    2.2425 H       1  LIG1        0.0660
     12 C           6.7816    5.5928    2.1484 C.ar    1  LIG1        0.1202
     13 C           6.7350    6.9714    1.9215 C.ar    1  LIG1       -0.0182
     14 H           5.9600    7.4501    2.1066 H       1  LIG1        0.0655
     15 C           7.8581    7.6234    1.4166 C.ar    1  LIG1       -0.0334
     16 H           7.8370    8.5413    1.2668 H       1  LIG1        0.0638
     17 C           9.0140    6.8944    1.1374 C.ar    1  LIG1        0.0888
     18 C           9.0580    5.5134    1.3509 C.ar    1  LIG1       -0.0334
     19 H           9.8316    5.0346    1.1571 H       1  LIG1        0.0638
     20 C           7.9450    4.8654    1.8521 C.ar    1  LIG1       -0.0182
     21 H           7.9671    3.9460    1.9928 H       1  LIG1        0.0655
     22 C          11.3733    8.1980    1.9539 C.3     1  LIG1        0.0958
     23 H          10.8407    8.7795    2.5185 H       1  LIG1        0.0554
     24 H          11.6172    7.4130    2.4684 H       1  LIG1        0.0554
     25 C          12.6143    8.9194    1.5001 C.ar    1  LIG1       -0.0260
     26 C          12.6166   10.3170    1.4232 C.ar    1  LIG1       -0.0549
     27 H          11.8715   10.7980    1.7034 H       1  LIG1        0.0621
     28 C          13.7276   10.9895    0.9297 C.ar    1  LIG1       -0.0312
     29 H          13.7342   11.9174    0.8732 H       1  LIG1        0.0640
     30 C          14.8298   10.2460    0.5227 C.ar    1  LIG1        0.1262
     31 C          14.8732    8.8643    0.6196 C.ar    1  LIG1       -0.0312
     32 H          15.6322    8.3915    0.3658 H       1  LIG1        0.0640
     33 C          13.7508    8.2045    1.1066 C.ar    1  LIG1       -0.0549
     34 H          13.7546    7.2772    1.1714 H       1  LIG1        0.0621
@<TRIPOS>BOND
     1     6     7    2
     2     3     1    2
     3     5     7    2
     4     4     1    2
     5     7    30    1
     6    32    31    1
     7     1    17    1
     8     1    22    1
     9    30    31   ar
    10    30    28   ar
    11    31    33   ar
    12    29    28    1
    13    28    26   ar
    14    33    34    1
    15    33    25   ar
    16    17    18   ar
    17    17    15   ar
    18    19    18    1
    19    16    15    1
    20    18    20   ar
    21    15    13   ar
    22    26    25   ar
    23    26    27    1
    24    25    22    1
    25    20    21    1
    26    20    12   ar
    27    13    14    1
    28    13    12   ar
    29    22    24    1
    30    22    23    1
    31    12     2    1
    32    11     8    1
    33     2     8    1
    34     8    10    1
    35     8     9    1
