@<TRIPOS>MOLECULE
1-butyl-4-methylpyridinium hexachloridophosphate
 34 33 0 0 0
SMALL
GASTEIGER

@<TRIPOS>ATOM
      1 P           2.9696    5.8366    0.9314 P.3     1  LIG1        0.2282
      2 CL          1.7373    7.4945    0.4822 Cl      1  LIG1       -0.0380
      3 CL          2.3281    5.8589    2.9709 Cl      1  LIG1       -0.0380
      4 CL          4.5946    7.1398    1.4327 Cl      1  LIG1       -0.0380
      5 CL          1.3632    4.5049    0.4391 Cl      1  LIG1       -0.0380
      6 CL          3.6360    5.7715   -1.1105 Cl      1  LIG1       -0.0380
      7 CL          4.2203    4.1320    1.3699 Cl      1  LIG1       -0.0380
      8 N           2.9730    1.9995    5.4598 N.pl3   2  LIG2       -0.3131
      9 C           1.8944    1.4607    6.0612 C.2     2  LIG2       -0.0069
     10 C           0.7240    1.2840    5.3805 C.2     2  LIG2       -0.0592
     11 C           0.6079    1.6425    4.0445 C.3     2  LIG2        0.0191
     12 C           1.7282    2.2385    3.4762 C.2     2  LIG2       -0.0592
     13 C           2.8700    2.4037    4.1822 C.2     2  LIG2       -0.0069
     14 C          -0.6249    1.3898    3.2451 C.3     2  LIG2       -0.0514
     15 C           4.2605    2.1227    6.1926 C.3     2  LIG2        0.0162
     16 H           4.0989    2.4898    7.0268 H       2  LIG2        0.0467
     17 H           4.8156    2.7013    5.7319 H       2  LIG2        0.0467
     18 C           4.9564    0.8126    6.3651 C.3     2  LIG2       -0.0371
     19 H           6.0823    1.0610    6.8036 H       2  LIG2        0.0280
     20 H           4.3598    0.2100    7.2516 H       2  LIG2        0.0280
     21 C           5.1253   -0.0804    5.3156 C.3     2  LIG2       -0.0545
     22 H           5.6126    0.3911    4.6334 H       2  LIG2        0.0263
     23 H           4.2427   -0.2484    4.9579 H       2  LIG2        0.0263
     24 C           5.7630   -1.3702    5.4565 C.3     2  LIG2       -0.0652
     25 H           5.7758   -1.8323    4.5748 H       2  LIG2        0.0230
     26 H           5.2591   -1.9192    6.1119 H       2  LIG2        0.0230
     27 H           6.6883   -1.2456    5.7779 H       2  LIG2        0.0230
     28 H           1.9925    1.2239    6.9176 H       2  LIG2        0.0780
     29 H          -0.0631    0.9704    5.8412 H       2  LIG2        0.0593
     30 H           1.7257    2.4768    2.6911 H       2  LIG2        0.0593
     31 H           3.7242    2.8172    3.8308 H       2  LIG2        0.0780
     32 H          -1.3212    1.3036    3.7358 H       2  LIG2        0.0241
     33 H          -0.5872    0.5287    2.8019 H       2  LIG2        0.0241
     34 H          -0.7327    2.0495    2.5802 H       2  LIG2        0.0241
@<TRIPOS>BOND
     1     6     1    1
     2     5     1    1
     3     2     1    1
     4     1     7    1
     5     1     4    1
     6     1     3    1
     7    34    14    1
     8    30    12    1
     9    33    14    1
    10    14    32    1
    11    14    11    1
    12    12    11    1
    13    12    13    2
    14    31    13    1
    15    11    10    1
    16    13     8    1
    17    25    24    1
    18    22    21    1
    19    23    21    1
    20    21    24    1
    21    21    18    1
    22    10    29    1
    23    10     9    2
    24    24    27    1
    25    24    26    1
    26     8     9    1
    27     8    15    1
    28    17    15    1
    29     9    28    1
    30    15    18    1
    31    15    16    1
    32    18    19    1
    33    18    20    1
