@<TRIPOS>MOLECULE
?
 27 26 0 0 0
SMALL
GASTEIGER

@<TRIPOS>ATOM
      1 O           6.8441    8.4052    5.7471 O.co2   1  LIG1       -0.2000
      2 O           5.4402    8.6562    7.4642 O.co2   1  LIG1       -0.2000
      3 O           6.8184    6.9436    7.4578 O.3     1  LIG1       -0.4347
      4 N           3.4901   10.3161    4.6170 N.pl3   2  LIG2       -0.3141
      5 N           3.5540   12.3780    3.9973 N.pl3   2  LIG2       -0.3141
      6 C           3.0543    8.9305    4.8091 C.3     2  LIG2        0.0023
      7 H           2.1836    8.9423    5.1463 H       2  LIG2        0.0428
      8 H           3.6690    8.4982    5.4055 H       2  LIG2        0.0428
      9 H           3.0382    8.4865    3.9989 H       2  LIG2        0.0428
     10 C           2.7696   11.2962    4.0688 C.3     2  LIG2        0.1361
     11 C           3.1759   13.6687    3.4054 C.3     2  LIG2        0.0023
     12 H           2.3469   13.9609    3.7765 H       2  LIG2        0.0428
     13 H           3.8411   14.3155    3.6398 H       2  LIG2        0.0428
     14 H           3.0622   13.5796    2.4554 H       2  LIG2        0.0428
     15 C           4.8074   12.0600    4.4832 C.2     2  LIG2        0.0074
     16 H           5.5165   12.7240    4.4911 H       2  LIG2        0.0793
     17 C           4.7669   10.7710    4.8701 C.2     2  LIG2        0.0074
     18 H           5.4316   10.1525    5.2688 H       2  LIG2        0.0793
     19 C           1.3797   11.1894    3.5853 C.3     2  LIG2       -0.0230
     20 H           1.3802   10.8639    2.6730 H       2  LIG2        0.0268
     21 H           0.9546   12.0009    3.6100 H       2  LIG2        0.0268
     22 H           0.8408   10.5152    4.1475 H       2  LIG2        0.0268
     23 C           6.3315    8.0828    6.8244 C.2     1  LIG1        0.5508
     24 C           7.8621    6.2392    6.7918 C.3     1  LIG1        0.0852
     25 H           7.6383    6.0243    5.8538 H       1  LIG1        0.0662
     26 H           8.6838    6.7892    6.7397 H       1  LIG1        0.0662
     27 H           8.0334    5.3942    7.2772 H       1  LIG1        0.0662
@<TRIPOS>BOND
     1    14    11    1
     2    20    19    1
     3    11    13    1
     4    11    12    1
     5    11     5    1
     6    19    21    1
     7    19    10    1
     8    19    22    1
     9     5    10    1
    10     5    15    1
    11     9     6    1
    12    10     4    1
    13    15    16    1
    14    15    17    2
    15     4     6    1
    16     4    17    1
    17     6     7    1
    18     6     8    1
    19    17    18    1
    20     1    23   ar
    21    25    24    1
    22    26    24    1
    23    24    27    1
    24    24     3    1
    25    23     3    1
    26    23     2   ar
