@<TRIPOS>MOLECULE
?
 130 131 0 0 0
SMALL
GASTEIGER

@<TRIPOS>ATOM
      1 O           6.8208    6.2022    9.9418 O.2     1  LIG1       -0.2752
      2 O           5.6064   12.3136   10.7620 O.co2   1  LIG1       -0.2464
      3 O           4.3943   10.5339   11.2877 O.co2   1  LIG1       -0.2464
      4 N           5.8038    6.6562    7.9729 N.am    1  LIG1       -0.2680
      5 N           4.3729    2.8824    6.5205 N.4     1  LIG1        0.2356
      6 H           3.6572    3.4090    6.2463 H       1  LIG1        0.2033
      7 C           6.3647    7.0397    9.1640 C.2     1  LIG1        0.2200
      8 C           6.4128    8.5256    9.4864 C.3     1  LIG1        0.0250
      9 H           5.5594    8.9440    9.2105 H       1  LIG1        0.0359
     10 H           7.1402    8.9460    8.9627 H       1  LIG1        0.0359
     11 C           6.6441    8.7971   10.9668 C.3     1  LIG1       -0.0346
     12 H           7.4697    8.3337   11.2567 H       1  LIG1        0.0275
     13 H           5.8879    8.4249   11.4858 H       1  LIG1        0.0275
     14 C           6.7748   10.2880   11.2726 C.3     1  LIG1        0.0496
     15 H           7.0787   10.3891   12.2089 H       1  LIG1        0.0379
     16 H           7.4801   10.6663   10.6892 H       1  LIG1        0.0379
     17 C           5.5045   11.1112   11.0868 C.2     1  LIG1        0.3560
     18 C           5.2442    7.6289    7.0645 C.ar    1  LIG1        0.0366
     19 C           6.0731    8.5245    6.3981 C.ar    1  LIG1       -0.0403
     20 H           7.0158    8.4694    6.5028 H       1  LIG1        0.0636
     21 C           5.5209    9.4987    5.5798 C.ar    1  LIG1       -0.0600
     22 H           6.0868   10.1253    5.1437 H       1  LIG1        0.0618
     23 C           4.1418    9.5661    5.3926 C.ar    1  LIG1       -0.0616
     24 H           3.7657   10.2407    4.8395 H       1  LIG1        0.0618
     25 C           3.3268    8.6403    6.0210 C.ar    1  LIG1       -0.0600
     26 H           2.3880    8.6650    5.8754 H       1  LIG1        0.0618
     27 C           3.8660    7.6782    6.8597 C.ar    1  LIG1       -0.0403
     28 H           3.2983    7.0530    7.2942 H       1  LIG1        0.0636
     29 C           5.7534    5.2006    7.6677 C.3     1  LIG1        0.0407
     30 H           6.6104    4.7951    7.9866 H       1  LIG1        0.0508
     31 C           5.6618    4.9574    6.1711 C.3     1  LIG1        0.0067
     32 H           6.4609    5.3394    5.7284 H       1  LIG1        0.0335
     33 H           4.8635    5.4200    5.8121 H       1  LIG1        0.0335
     34 C           5.5702    3.4726    5.8501 C.3     1  LIG1       -0.0302
     35 H           5.5006    3.3462    4.8702 H       1  LIG1        0.0815
     36 H           6.3885    3.0124    6.1626 H       1  LIG1        0.0815
     37 C           4.5031    3.0177    7.9996 C.3     1  LIG1       -0.0302
     38 H           5.3113    2.5351    8.3062 H       1  LIG1        0.0815
     39 H           3.7162    2.6102    8.4396 H       1  LIG1        0.0815
     40 C           4.6052    4.4910    8.3961 C.3     1  LIG1        0.0067
     41 H           4.7488    4.5568    9.3729 H       1  LIG1        0.0335
     42 H           3.7525    4.9459    8.1831 H       1  LIG1        0.0335
     43 C           4.1229    1.4614    6.1094 C.3     1  LIG1       -0.0278
     44 H           3.3441    1.1056    6.6070 H       1  LIG1        0.0818
     45 H           4.9113    0.9076    6.3352 H       1  LIG1        0.0818
     46 C           3.8533    1.3765    4.6133 C.3     1  LIG1        0.0127
     47 H           3.2848    2.1432    4.3488 H       1  LIG1        0.0365
     48 H           4.7144    1.4623    4.1317 H       1  LIG1        0.0365
     49 C           3.1779    0.0971    4.1743 C.ar    1  LIG1       -0.0423
     50 C           1.8145   -0.0895    4.3755 C.ar    1  LIG1       -0.0584
     51 H           1.3174    0.5629    4.8548 H       1  LIG1        0.0620
     52 C           1.1749   -1.2113    3.8871 C.ar    1  LIG1       -0.0615
     53 H           0.2425   -1.3252    4.0326 H       1  LIG1        0.0618
     54 C           1.8903   -2.1738    3.1833 C.ar    1  LIG1       -0.0617
     55 H           1.4479   -2.9386    2.8343 H       1  LIG1        0.0618
     56 C           3.2488   -2.0107    2.9965 C.ar    1  LIG1       -0.0615
     57 H           3.7438   -2.6691    2.5232 H       1  LIG1        0.0618
     58 C           3.8907   -0.8888    3.4965 C.ar    1  LIG1       -0.0584
     59 H           4.8285   -0.7915    3.3762 H       1  LIG1        0.0620
     60 O          -0.5099    6.2928    2.7004 O.2     2  LIG2       -0.2752
     61 O           1.4501   12.2030    3.1539 O.co2   2  LIG2       -0.2464
     62 O           0.2810   11.0363    1.6520 O.co2   2  LIG2       -0.2464
     63 N           1.6732    5.9702    2.1966 N.am    2  LIG2       -0.2680
     64 N           1.8276    2.1813    0.1785 N.4     2  LIG2        0.2356
     65 H           2.4335    2.6768   -0.6291 H       2  LIG2        0.2033
     66 C           0.6263    6.7453    2.6261 C.2     2  LIG2        0.2200
     67 C           0.9485    8.1839    2.9849 C.3     2  LIG2        0.0250
     68 H           1.3200    8.6369    2.1864 H       2  LIG2        0.0359
     69 H           1.6459    8.1902    3.6873 H       2  LIG2        0.0359
     70 C          -0.2565    8.9702    3.4815 C.3     2  LIG2       -0.0346
     71 H          -0.6773    8.4839    4.2343 H       2  LIG2        0.0275
     72 H          -0.9230    9.0423    2.7539 H       2  LIG2        0.0275
     73 C           0.1405   10.3705    3.9430 C.3     2  LIG2        0.0496
     74 H          -0.6541   10.8084    4.3386 H       2  LIG2        0.0379
     75 H           0.8223   10.2866    4.6565 H       2  LIG2        0.0379
     76 C           0.6942   11.2693    2.8483 C.2     2  LIG2        0.3560
     77 C           3.0194    6.4870    2.1120 C.ar    2  LIG2        0.0366
     78 C           3.8222    6.4833    3.2406 C.ar    2  LIG2       -0.0403
     79 H           3.4867    6.1587    4.0685 H       2  LIG2        0.0636
     80 C           5.1220    6.9580    3.1510 C.ar    2  LIG2       -0.0600
     81 H           5.6785    6.9574    3.9215 H       2  LIG2        0.0618
     82 C           5.6181    7.4356    1.9436 C.ar    2  LIG2       -0.0616
     83 H           6.5067    7.7659    1.8907 H       2  LIG2        0.0618
     84 C           4.8086    7.4272    0.8147 C.ar    2  LIG2       -0.0600
     85 H           5.1464    7.7462   -0.0137 H       2  LIG2        0.0618
     86 C           3.5077    6.9543    0.8963 C.ar    2  LIG2       -0.0403
     87 H           2.9533    6.9487    0.1248 H       2  LIG2        0.0636
     88 C           1.4316    4.5418    1.8811 C.3     2  LIG2        0.0407
     89 H           0.8439    4.1611    2.5949 H       2  LIG2        0.0508
     90 C           2.7312    3.7477    1.8654 C.3     2  LIG2        0.0067
     91 H           3.3523    4.1454    1.2035 H       2  LIG2        0.0335
     92 H           3.1594    3.7986    2.7573 H       2  LIG2        0.0335
     93 C           2.4782    2.2908    1.5093 C.3     2  LIG2       -0.0302
     94 H           3.3378    1.7994    1.4992 H       2  LIG2        0.0815
     95 H           1.8969    1.8787    2.1966 H       2  LIG2        0.0815
     96 C           0.5192    2.9024    0.1954 C.3     2  LIG2       -0.0302
     97 H          -0.0798    2.4853    0.8650 H       2  LIG2        0.0815
     98 H           0.0880    2.8277   -0.6923 H       2  LIG2        0.0815
     99 C           0.7223    4.3721    0.5395 C.3     2  LIG2        0.0067
    100 H          -0.1570    4.8242    0.5744 H       2  LIG2        0.0335
    101 H           1.2600    4.8039   -0.1709 H       2  LIG2        0.0335
    102 C           1.6410    0.7664   -0.2320 C.3     2  LIG2       -0.0278
    103 H           1.0584    0.7348   -1.0308 H       2  LIG2        0.0818
    104 H           1.1842    0.2746    0.4957 H       2  LIG2        0.0818
    105 C           2.9671    0.0728   -0.5503 C.3     2  LIG2        0.0127
    106 H           3.5311    0.6779   -1.0940 H       2  LIG2        0.0365
    107 H           3.4491   -0.1172    0.2940 H       2  LIG2        0.0365
    108 C           2.7463   -1.2180   -1.3024 C.ar    2  LIG2       -0.0423
    109 C           3.1892   -2.4341   -0.7764 C.ar    2  LIG2       -0.0584
    110 H           3.6566   -2.4478    0.0513 H       2  LIG2        0.0620
    111 C           2.9507   -3.6258   -1.4535 C.ar    2  LIG2       -0.0615
    112 H           3.2622   -4.4460   -1.0906 H       2  LIG2        0.0618
    113 C           2.2625   -3.6200   -2.6544 C.ar    2  LIG2       -0.0617
    114 H           2.0877   -4.4349   -3.1095 H       2  LIG2        0.0618
    115 C           1.8304   -2.4146   -3.1897 C.ar    2  LIG2       -0.0615
    116 H           1.3593   -2.4033   -4.0138 H       2  LIG2        0.0618
    117 C           2.0863   -1.2231   -2.5194 C.ar    2  LIG2       -0.0584
    118 H           1.8035   -0.4003   -2.9027 H       2  LIG2        0.0620
    119 O           8.5583   12.8655    7.6669 O.3     1  LIG1       -0.3982
    120 H           9.1267   12.9510    7.0549 H       1  LIG1        0.2090
    121 C           7.5307   12.0121    7.2353 C.3     1  LIG1        0.0330
    122 H           6.8344   11.9641    7.9233 H       1  LIG1        0.0521
    123 H           7.8959   11.1168    7.0771 H       1  LIG1        0.0521
    124 H           7.1448   12.3596    6.4036 H       1  LIG1        0.0521
    125 O           7.9721   13.6614   10.2844 O.3     3  HOH3       -0.4105
    126 H           7.2203   13.3016   10.5046 H       0  HOH0        0.2052
    127 H           8.0429   13.3970    9.4635 H       0  HOH0        0.2052
    128 O          10.6021   13.3407    5.8391 O.3     4  HOH4       -0.4105
    129 H          11.0845   14.0205    6.0686 H       0  HOH0        0.2052
    130 H          10.6827   13.1494    5.0275 H       0  HOH0        0.2052
@<TRIPOS>BOND
     1   116   115    1
     2   115   113   ar
     3   115   117   ar
     4   114   113    1
     5   118   117    1
     6   113   111   ar
     7   117   108   ar
     8   111   112    1
     9   111   109   ar
    10   108   109   ar
    11   108   105    1
    12   106   105    1
    13   103   102    1
    14   109   110    1
    15    98    96    1
    16    65    64    1
    17   105   102    1
    18   105   107    1
    19   102    64    1
    20   102   104    1
    21   101    99    1
    22    85    84    1
    23    87    86    1
    24    64    96    1
    25    64    93    1
    26    96    99    1
    27    96    97    1
    28    99   100    1
    29    99    88    1
    30    84    86   ar
    31    84    82   ar
    32    86    77   ar
    33    91    90    1
    34    94    93    1
    35    93    90    1
    36    93    95    1
    37    62    76   ar
    38    90    88    1
    39    90    92    1
    40    88    63    1
    41    88    89    1
    42    83    82    1
    43    82    80   ar
    44    77    63    1
    45    77    78   ar
    46    68    67    1
    47    63    66   am
    48    57    56    1
    49    66    60    2
    50    66    67    1
    51    72    70    1
    52    55    54    1
    53    76    61   ar
    54    76    73    1
    55    67    70    1
    56    67    69    1
    57    56    54   ar
    58    56    58   ar
    59    80    78   ar
    60    80    81    1
    61    54    52   ar
    62    78    79    1
    63    59    58    1
    64    70    73    1
    65    70    71    1
    66    58    49   ar
    67    52    53    1
    68    52    50   ar
    69    73    74    1
    70    73    75    1
    71    48    46    1
    72    49    50   ar
    73    49    46    1
    74    47    46    1
    75    50    51    1
    76    46    43    1
    77    24    23    1
    78    35    34    1
    79   130   128    1
    80    22    21    1
    81    23    21   ar
    82    23    25   ar
    83    21    19   ar
    84    32    31    1
    85    33    31    1
    86   128   129    1
    87    34    36    1
    88    34    31    1
    89    34     5    1
    90    26    25    1
    91    25    27   ar
    92    43    45    1
    93    43     5    1
    94    43    44    1
    95    31    29    1
    96     6     5    1
    97    19    20    1
    98    19    18   ar
    99   124   121    1
   100     5    37    1
   101    27    18   ar
   102    27    28    1
   103   120   119    1
   104    18     4    1
   105   123   121    1
   106   121   119    1
   107   121   122    1
   108    29     4    1
   109    29    30    1
   110    29    40    1
   111     4     7   am
   112    37    38    1
   113    37    40    1
   114    37    39    1
   115    42    40    1
   116    40    41    1
   117    10     8    1
   118     7     8    1
   119     7     1    2
   120     9     8    1
   121   127   125    1
   122     8    11    1
   123   125   126    1
   124    16    14    1
   125     2    17   ar
   126    11    12    1
   127    11    14    1
   128    11    13    1
   129    17    14    1
   130    17     3   ar
   131    14    15    1
