@<TRIPOS>MOLECULE
3-Ethoxycarbonyl-2-phenyl-1,5-dihydro-4,1-benzothiazepine
 39 41 0 0 0
SMALL
GASTEIGER

@<TRIPOS>ATOM
      1 C           1.6805    0.5539    6.2537 C.3     1  LIG1        0.0254
      2 H           1.4136    1.3907    5.8421 H       1  LIG1        0.0429
      3 H           0.8764    0.1017    6.5531 H       1  LIG1        0.0429
      4 S           2.5163   -0.4833    5.0059 S.3     1  LIG1       -0.1117
      5 C           3.3937    0.7629    4.1093 C.2     1  LIG1        0.1140
      6 C           4.0911    1.7730    4.6970 C.2     1  LIG1        0.0591
      7 N           4.2423    2.0440    6.0488 N.pl3   1  LIG1       -0.3128
      8 H           4.8109    2.8299    6.1951 H       1  LIG1        0.1522
      9 C           3.7543    1.5346    7.2748 C.ar    1  LIG1        0.0354
     10 C           4.5153    1.8405    8.3984 C.ar    1  LIG1       -0.0402
     11 H           5.3189    2.2967    8.2929 H       1  LIG1        0.0636
     12 C           4.1068    1.4853    9.6568 C.ar    1  LIG1       -0.0600
     13 H           4.6228    1.7150   10.3956 H       1  LIG1        0.0618
     14 C           2.9205    0.7820    9.8289 C.ar    1  LIG1       -0.0614
     15 H           2.6424    0.5205   10.6770 H       1  LIG1        0.0618
     16 C           2.1636    0.4800    8.7143 C.ar    1  LIG1       -0.0560
     17 H           1.3682    0.0103    8.8290 H       1  LIG1        0.0621
     18 C           2.5406    0.8471    7.4351 C.ar    1  LIG1       -0.0161
     19 C           3.3202    0.6906    2.6265 C.2     1  LIG1        0.3474
     20 O           2.7890   -0.4625    2.2310 O.3     1  LIG1       -0.4610
     21 O           3.6612    1.5457    1.8594 O.2     1  LIG1       -0.2443
     22 C           2.5946   -0.6238    0.7962 C.3     1  LIG1        0.0900
     23 H           2.6468   -1.5640    0.5644 H       1  LIG1        0.0695
     24 H           3.2974   -0.1558    0.3180 H       1  LIG1        0.0695
     25 C           1.2775   -0.0866    0.3913 C.3     1  LIG1       -0.0306
     26 H           0.5856   -0.5229    0.8941 H       1  LIG1        0.0262
     27 H           1.1418   -0.2456   -0.5461 H       1  LIG1        0.0262
     28 H           1.2511    0.8575    0.5627 H       1  LIG1        0.0262
     29 C           4.8739    2.8013    3.9340 C.ar    1  LIG1       -0.0026
     30 C           6.1050    2.4667    3.3729 C.ar    1  LIG1       -0.0528
     31 H           6.3893    1.5807    3.3714 H       1  LIG1        0.0624
     32 C           6.9015    3.4466    2.8212 C.ar    1  LIG1       -0.0611
     33 H           7.7211    3.2185    2.4457 H       1  LIG1        0.0618
     34 C           6.4909    4.7690    2.8227 C.ar    1  LIG1       -0.0617
     35 H           7.0403    5.4302    2.4674 H       1  LIG1        0.0618
     36 C           5.2665    5.0972    3.3513 C.ar    1  LIG1       -0.0611
     37 H           4.9791    5.9809    3.3365 H       1  LIG1        0.0618
     38 C           4.4629    4.1261    3.9029 C.ar    1  LIG1       -0.0528
     39 H           3.6359    4.3597    4.2588 H       1  LIG1        0.0624
@<TRIPOS>BOND
     1    27    25    1
     2    24    22    1
     3    25    28    1
     4    25    22    1
     5    25    26    1
     6    23    22    1
     7    22    20    1
     8    21    19    2
     9    20    19    1
    10    33    32    1
    11    35    34    1
    12    19     5    1
    13    32    34   ar
    14    32    30   ar
    15    34    36   ar
    16    37    36    1
    17    36    38   ar
    18    31    30    1
    19    30    29   ar
    20    38    29   ar
    21    38    39    1
    22    29     6    1
    23     5     6    2
    24     5     4    1
    25     6     7    1
    26     4     1    1
    27     2     1    1
    28     7     8    1
    29     7     9    1
    30     1     3    1
    31     1    18    1
    32     9    18   ar
    33     9    10   ar
    34    18    16   ar
    35    11    10    1
    36    10    12   ar
    37    16    17    1
    38    16    14   ar
    39    12    14   ar
    40    12    13    1
    41    14    15    1
