@<TRIPOS>MOLECULE
4-(3-Chloro-phenyl)-6-methyl-2-thioxo-1,2,3,4-tetrahydro-pyrimidine-5-carboxylic acid ethyl ester
 35 36 0 0 0
SMALL
GASTEIGER

@<TRIPOS>ATOM
      1 S           7.5225    2.6394    9.6524 S.2     1  LIG1       -0.0185
      2 CL          2.3902   -0.0795    5.7082 Cl      1  LIG1       -0.0835
      3 O           1.9770    5.9873    8.3605 O.2     1  LIG1       -0.2452
      4 O           3.4298    7.5795    7.7996 O.3     1  LIG1       -0.4616
      5 N           4.9906    3.2925    9.1863 N.am    1  LIG1       -0.3152
      6 H           4.7683    2.6081    9.6556 H       1  LIG1        0.1486
      7 N           6.5310    4.8948    8.7070 N.am    1  LIG1       -0.3001
      8 H           7.3496    5.1056    8.5478 H       1  LIG1        0.1535
      9 C           4.2696    5.4815    8.4320 C.2     1  LIG1        0.0777
     10 C           6.2696    3.6321    9.1480 C.2     1  LIG1        0.1350
     11 C           3.7275    3.4054    7.0987 C.ar    1  LIG1       -0.0212
     12 C           3.1169    6.3631    8.2185 C.2     1  LIG1        0.3387
     13 C           3.9283    4.0147    8.4763 C.3     1  LIG1        0.0809
     14 H           3.0953    3.9099    8.9819 H       1  LIG1        0.0601
     15 C           5.5609    5.8621    8.4985 C.2     1  LIG1        0.0185
     16 C           3.1855    2.1230    7.0151 C.ar    1  LIG1       -0.0381
     17 H           2.9241    1.6722    7.7855 H       1  LIG1        0.0635
     18 C           3.0429    1.5378    5.7976 C.ar    1  LIG1        0.0413
     19 C           4.0880    4.0453    5.9315 C.ar    1  LIG1       -0.0564
     20 H           4.4587    4.8969    5.9708 H       1  LIG1        0.0621
     21 C           2.3419    8.4890    7.5126 C.3     1  LIG1        0.0900
     22 H           1.8645    8.7146    8.3263 H       1  LIG1        0.0695
     23 H           1.7182    8.0847    6.8892 H       1  LIG1        0.0695
     24 C           6.1329    7.2446    8.3746 C.3     1  LIG1       -0.0259
     25 H           6.2851    7.4461    7.4491 H       1  LIG1        0.0290
     26 H           6.9642    7.2909    8.8530 H       1  LIG1        0.0290
     27 H           5.5155    7.8809    8.7442 H       1  LIG1        0.0290
     28 C           3.9066    3.4390    4.7120 C.ar    1  LIG1       -0.0601
     29 H           4.1391    3.8915    3.9335 H       1  LIG1        0.0618
     30 C           3.3859    2.1688    4.6304 C.ar    1  LIG1       -0.0434
     31 H           3.2699    1.7507    3.8077 H       1  LIG1        0.0632
     32 C           2.9509    9.6973    6.9215 C.3     1  LIG1       -0.0306
     33 H           3.6588   10.0102    7.4894 H       1  LIG1        0.0262
     34 H           2.2839   10.3820    6.8348 H       1  LIG1        0.0262
     35 H           3.3062    9.4858    6.0544 H       1  LIG1        0.0262
@<TRIPOS>BOND
     1    31    30    1
     2    29    28    1
     3    30    28   ar
     4    30    18   ar
     5    28    19   ar
     6     2    18    1
     7    18    16   ar
     8    19    20    1
     9    19    11   ar
    10    35    32    1
    11    34    32    1
    12    23    21    1
    13    32    33    1
    14    32    21    1
    15    16    11   ar
    16    16    17    1
    17    11    13    1
    18    25    24    1
    19    21     4    1
    20    21    22    1
    21     4    12    1
    22    12     3    2
    23    12     9    1
    24    24    15    1
    25    24    27    1
    26    24    26    1
    27     9    13    1
    28     9    15    2
    29    13    14    1
    30    13     5    1
    31    15     7    1
    32     8     7    1
    33     7    10    1
    34    10     5    1
    35    10     1    2
    36     5     6    1
