@<TRIPOS>MOLECULE
?
 35 33 0 0 0
SMALL
GASTEIGER

@<TRIPOS>ATOM
      1 CL          2.8914   13.3458    1.7518 Cl      1  LIG1       -0.0716
      2 CL          5.3474   12.7062    0.4282 Cl      1  LIG1       -0.0716
      3 CL          3.8157   19.7328    2.6393 Cl      2  LIG2       -0.0716
      4 CL          6.2862   19.0208    1.4259 Cl      2  LIG2       -0.0716
      5 CL          4.9432   11.9084    3.1658 Cl      1  LIG1       -0.0716
      6 O           6.4466   14.7218    2.2242 O.co2   1  LIG1       -0.2416
      7 CL          4.1975   20.1094   -0.1930 Cl      2  LIG2       -0.0716
      8 O           2.7895   17.4449    1.1685 O.co2   2  LIG2       -0.2416
      9 N           0.2961   16.7107    6.1974 N.4     3  LIG3        0.2347
     10 H           0.9250   16.9581    6.7917 H       3  LIG3        0.2018
     11 H          -0.5091   16.9026    6.5489 H       3  LIG3        0.2018
     12 C           3.9599   17.6487    0.8004 C.2     2  LIG2        0.4062
     13 C           0.3912   15.2462    5.9601 C.3     3  LIG3        0.0102
     14 H          -0.3196   14.9692    5.3610 H       3  LIG3        0.0870
     15 H           0.2759   14.7752    6.8007 H       3  LIG3        0.0870
     16 O           4.5610   15.1651    3.3256 O.co2   1  LIG1       -0.2416
     17 N           1.9125   15.6677    4.0797 N.4     3  LIG3        0.2364
     18 H           2.7179   15.4797    3.7255 H       3  LIG3        0.2020
     19 H           1.2847   15.4144    3.4868 H       3  LIG3        0.2020
     20 O           4.6878   16.9402    0.1010 O.co2   2  LIG2       -0.2416
     21 C           1.8092   17.1282    4.2956 C.3     3  LIG3        0.0078
     22 H           1.8911   17.5874    3.4453 H       3  LIG3        0.0867
     23 H           2.5345   17.4231    4.8684 H       3  LIG3        0.0867
     24 C           5.2791   14.5140    2.5598 C.2     1  LIG1        0.4062
     25 C           4.5502   19.0617    1.1789 C.3     2  LIG2        0.2917
     26 C           1.7374   14.8742    5.3534 C.3     3  LIG3        0.0155
     27 H           2.4519   15.1077    5.9823 H       3  LIG3        0.0901
     28 C           4.6489   13.1881    1.9731 C.3     1  LIG1        0.2917
     29 C           0.4807   17.4805    4.9369 C.3     3  LIG3        0.0076
     30 H           0.4543   18.4324    5.1299 H       3  LIG3        0.0867
     31 H          -0.2421   17.2787    4.3226 H       3  LIG3        0.0867
     32 C           1.7972   13.3998    5.0587 C.3     3  LIG3       -0.0167
     33 H           1.6443   12.9051    5.8674 H       3  LIG3        0.0286
     34 H           2.6627   13.1782    4.7065 H       3  LIG3        0.0286
     35 H           1.1222   13.1742    4.4139 H       3  LIG3        0.0286
@<TRIPOS>BOND
     1     7    25    1
     2    20    12   ar
     3     2    28    1
     4    12     8   ar
     5    12    25    1
     6    25     4    1
     7    25     3    1
     8     1    28    1
     9    28    24    1
    10    28     5    1
    11     6    24   ar
    12    24    16   ar
    13    22    21    1
    14    19    17    1
    15    18    17    1
    16    17    21    1
    17    17    26    1
    18    21    23    1
    19    21    29    1
    20    31    29    1
    21    35    32    1
    22    34    32    1
    23    29    30    1
    24    29     9    1
    25    32    26    1
    26    32    33    1
    27    26    13    1
    28    26    27    1
    29    14    13    1
    30    13     9    1
    31    13    15    1
    32     9    11    1
    33     9    10    1
