@<TRIPOS>MOLECULE
C11 H10 O4
 25 25 0 0 0
SMALL
GASTEIGER

@<TRIPOS>ATOM
      1 O          -2.0456   -4.2626   -5.9480 O.2     1  LIG1       -0.2956
      2 O          -1.7794   -3.3622   -3.4618 O.3     1  LIG1       -0.5028
      3 O          -1.4011   -1.1869   -1.8753 O.3     1  LIG1       -0.4188
      4 O          -3.5370   -1.6745   -1.3677 O.2     1  LIG1       -0.2449
      5 C          -2.1462   -3.0923   -6.3128 C.2     1  LIG1        0.1538
      6 C          -2.0574   -1.9520   -5.4098 C.ar    1  LIG1        0.0592
      7 C          -2.1189   -0.6532   -5.9402 C.ar    1  LIG1       -0.0478
      8 C          -1.9905    0.4469   -5.1192 C.ar    1  LIG1       -0.0574
      9 C          -1.8039    0.2613   -3.7536 C.ar    1  LIG1       -0.0155
     10 C          -1.7442   -1.0132   -3.2212 C.ar    1  LIG1        0.1738
     11 C          -1.8695   -2.1449   -4.0340 C.ar    1  LIG1        0.1696
     12 C          -2.3867   -1.6162   -1.0366 C.2     1  LIG1        0.3397
     13 C          -1.8591   -1.9823    0.3088 C.2     1  LIG1        0.0269
     14 C          -0.5225   -1.8723    0.5922 C.2     1  LIG1       -0.0890
     15 C          -2.8473   -2.4702    1.2421 C.3     1  LIG1       -0.0335
     16 H          -1.7884   -3.9566   -4.1403 H       1  LIG1        0.2923
     17 H          -2.2574   -2.8761   -7.2279 H       1  LIG1        0.1083
     18 H          -2.2370   -0.5551   -6.8736 H       1  LIG1        0.0626
     19 H          -1.9943    1.3424   -5.4968 H       1  LIG1        0.0619
     20 H          -1.7001    1.0348   -3.1685 H       1  LIG1        0.0655
     21 H           0.1191   -1.7447   -0.1215 H       1  LIG1        0.0540
     22 H          -0.2480   -2.1604    1.4577 H       1  LIG1        0.0540
     23 H          -2.4953   -2.6594    2.0955 H       1  LIG1        0.0280
     24 H          -3.3640   -3.1716    0.9718 H       1  LIG1        0.0280
     25 H          -3.6365   -1.9130    1.2958 H       1  LIG1        0.0280
@<TRIPOS>BOND
     1    17     5    1
     2    18     7    1
     3     5     1    2
     4     5     6    1
     5     7     6   ar
     6     7     8   ar
     7    19     8    1
     8     6    11   ar
     9     8     9   ar
    10    16     2    1
    11    11     2    1
    12    11    10   ar
    13     9    10   ar
    14     9    20    1
    15    10     3    1
    16     3    12    1
    17     4    12    2
    18    12    13    1
    19    21    14    1
    20    13    14    2
    21    13    15    1
    22    14    22    1
    23    24    15    1
    24    15    25    1
    25    15    23    1
