@<TRIPOS>MOLECULE
?
 40 44 0 0 0
SMALL
GASTEIGER

@<TRIPOS>ATOM
      1 C          -1.3513    0.1910    7.3406 C.3     1  LIG1       -0.0268
      2 H          -1.9338    0.2016    6.5752 H       1  LIG1        0.0313
      3 H          -1.7677    0.6247    8.0205 H       1  LIG1        0.0313
      4 C          -1.0108   -1.2362    7.7636 C.3     1  LIG1       -0.0453
      5 H          -1.4236   -1.5652    8.3861 H       1  LIG1        0.0271
      6 H          -1.3168   -1.8570    6.9767 H       1  LIG1        0.0271
      7 C           0.4923   -1.3278    7.8165 C.3     1  LIG1       -0.0293
      8 H           0.8542   -2.0427    7.2041 H       1  LIG1        0.0311
      9 H           0.7830   -1.4856    8.5680 H       1  LIG1        0.0311
     10 C           0.9819    0.0066    7.3478 C.2     1  LIG1       -0.0453
     11 C           2.4534    0.2491    7.1508 C.3     1  LIG1        0.0740
     12 H           2.9789   -0.4550    7.6132 H       1  LIG1        0.0545
     13 N           2.6350    0.1524    5.6596 N.3     1  LIG1       -0.1345
     14 N           2.6806    1.2865    5.1451 N.3     1  LIG1       -0.1341
     15 C           2.5760    2.3585    6.1874 C.3     1  LIG1        0.0779
     16 H           3.2126    3.0335    5.9671 H       1  LIG1        0.0549
     17 C           1.1815    2.9313    6.1014 C.ar    1  LIG1       -0.0194
     18 C           1.0498    4.2137    5.5708 C.ar    1  LIG1       -0.0564
     19 H           1.8151    4.6624    5.2851 H       1  LIG1        0.0621
     20 C          -0.1708    4.8383    5.4675 C.ar    1  LIG1       -0.0614
     21 H          -0.2135    5.7700    5.0976 H       1  LIG1        0.0618
     22 C          -1.2860    4.2005    5.9000 C.ar    1  LIG1       -0.0612
     23 H          -2.1829    4.6558    5.8591 H       1  LIG1        0.0618
     24 C          -1.2001    2.9350    6.4014 C.ar    1  LIG1       -0.0540
     25 H          -2.0287    2.4605    6.7115 H       1  LIG1        0.0624
     26 C           0.0240    2.2411    6.5229 C.ar    1  LIG1       -0.0171
     27 C          -0.0222    0.8635    7.0595 C.2     1  LIG1       -0.0391
     28 C           2.9253    1.6615    7.4975 C.3     1  LIG1        0.0288
     29 H           2.4035    2.0095    8.1834 H       1  LIG1        0.0388
     30 C           4.3856    1.7200    7.8822 C.ar    1  LIG1       -0.0405
     31 C           4.7404    1.8334    9.2183 C.ar    1  LIG1       -0.0582
     32 H           4.0455    1.9101    9.8845 H       1  LIG1        0.0620
     33 C           6.0663    1.8632    9.6134 C.ar    1  LIG1       -0.0615
     34 H           6.2770    1.9087   10.5740 H       1  LIG1        0.0618
     35 C           7.0672    1.7720    8.6729 C.ar    1  LIG1       -0.0617
     36 H           7.9723    1.8013    8.9677 H       1  LIG1        0.0618
     37 C           6.7356    1.6547    7.3338 C.ar    1  LIG1       -0.0615
     38 H           7.4265    1.5559    6.6964 H       1  LIG1        0.0618
     39 C           5.4099    1.6354    6.9521 C.ar    1  LIG1       -0.0582
     40 H           5.1559    1.5506    6.0428 H       1  LIG1        0.0620
@<TRIPOS>BOND
     1    21    20    1
     2    14    13    1
     3    14    15    1
     4    19    18    1
     5    20    18   ar
     6    20    22   ar
     7    18    17   ar
     8    13    11    1
     9    23    22    1
    10    22    24   ar
    11    16    15    1
    12    40    39    1
    13    17    15    1
    14    17    26   ar
    15    15    28    1
    16    24    26   ar
    17    24    25    1
    18    26    27    1
    19     2     1    1
    20    38    37    1
    21    39    37   ar
    22    39    30   ar
    23     6     4    1
    24    27     1    1
    25    27    10    2
    26    11    10    1
    27    11    28    1
    28    11    12    1
    29     8     7    1
    30    37    35   ar
    31     1     4    1
    32     1     3    1
    33    10     7    1
    34    28    30    1
    35    28    29    1
    36     4     7    1
    37     4     5    1
    38     7     9    1
    39    30    31   ar
    40    35    36    1
    41    35    33   ar
    42    31    33   ar
    43    31    32    1
    44    33    34    1
