@<TRIPOS>MOLECULE
N-Propyl-4-nitroaniline
 50 50 0 0 0
SMALL
GASTEIGER

@<TRIPOS>ATOM
      1 N           4.0899   11.6997   10.9166 N.pl3   1  LIG1        0.0564
      2 N           7.7359    8.0054   12.8553 N.pl3   1  LIG1       -0.3438
      3 H           7.7252    7.2265   12.4926 H       1  LIG1        0.1461
      4 O           3.9552   12.7643   11.5018 O.2     1  LIG1       -0.1261
      5 O           3.3942   11.3809    9.9503 O.2     1  LIG1       -0.1261
      6 N           9.0321   -0.0317    8.6337 N.pl3   2  LIG2       -0.3438
      7 H           9.7341   -0.3600    9.0065 H       2  LIG2        0.1461
      8 N           7.1708    4.7607   10.6759 N.pl3   2  LIG2        0.0564
      9 O           7.7502    5.2490   11.6430 O.2     2  LIG2       -0.1261
     10 O           6.1997    5.2992   10.1652 O.2     2  LIG2       -0.1261
     11 C           5.0765   10.7725   11.3847 C.ar    1  LIG1        0.1263
     12 C           5.9327   11.1312   12.4002 C.ar    1  LIG1       -0.0297
     13 H           5.8966   11.9897   12.7586 H       1  LIG1        0.0641
     14 C           6.8367   10.2269   12.8813 C.ar    1  LIG1       -0.0387
     15 H           7.4180   10.4787   13.5622 H       1  LIG1        0.0637
     16 C           6.9006    8.9323   12.3658 C.ar    1  LIG1        0.0272
     17 C           6.0330    8.6044   11.3062 C.ar    1  LIG1       -0.0387
     18 H           6.0758    7.7568   10.9242 H       1  LIG1        0.0637
     19 C           5.1329    9.5070   10.8321 C.ar    1  LIG1       -0.0297
     20 H           4.5579    9.2748   10.1393 H       1  LIG1        0.0641
     21 C           7.6463    3.5222   10.1409 C.ar    2  LIG2        0.1263
     22 C           8.7281    2.9064   10.7155 C.ar    2  LIG2       -0.0297
     23 H           9.1544    3.2958   11.4446 H       2  LIG2        0.0641
     24 C           9.1732    1.7278   10.2153 C.ar    2  LIG2       -0.0387
     25 H           9.9010    1.3073   10.6137 H       2  LIG2        0.0637
     26 C           8.5574    1.1364    9.1146 C.ar    2  LIG2        0.0272
     27 C           7.4577    1.7891    8.5508 C.ar    2  LIG2       -0.0387
     28 H           7.0280    1.4156    7.8147 H       2  LIG2        0.0637
     29 C           7.0125    2.9592    9.0654 C.ar    2  LIG2       -0.0297
     30 H           6.2743    3.3812    8.6888 H       2  LIG2        0.0641
     31 C           8.6601    8.2246   13.9577 C.3     1  LIG1        0.0089
     32 H           8.1751    8.5856   14.7166 H       1  LIG1        0.0461
     33 H           9.3282    8.8744   13.6916 H       1  LIG1        0.0461
     34 C           9.3386    6.9531   14.3629 C.3     1  LIG1       -0.0403
     35 H          10.0518    7.1629   14.9868 H       1  LIG1        0.0278
     36 H           9.7415    6.5483   13.5794 H       1  LIG1        0.0278
     37 C           8.4088    5.9579   15.0027 C.3     1  LIG1       -0.0639
     38 H           8.0608    6.3251   15.8192 H       1  LIG1        0.0230
     39 H           8.8884    5.1494   15.1938 H       1  LIG1        0.0230
     40 H           7.6838    5.7660   14.4032 H       1  LIG1        0.0230
     41 C           8.4471   -0.7721    7.5387 C.3     2  LIG2        0.0089
     42 H           8.4142   -0.2075    6.7509 H       2  LIG2        0.0461
     43 H           7.5381   -1.0194    7.7687 H       2  LIG2        0.0461
     44 C           9.2285   -1.9984    7.2325 C.3     2  LIG2       -0.0403
     45 H           9.2854   -2.5452    8.0318 H       2  LIG2        0.0278
     46 H          10.1304   -1.7439    6.9838 H       2  LIG2        0.0278
     47 C           8.6279   -2.8219    6.1212 C.3     2  LIG2       -0.0639
     48 H           7.7332   -3.0760    6.3584 H       2  LIG2        0.0230
     49 H           9.1586   -3.6100    5.9832 H       2  LIG2        0.0230
     50 H           8.6099   -2.3036    5.3133 H       2  LIG2        0.0230
@<TRIPOS>BOND
     1    50    47    1
     2    49    47    1
     3    47    48    1
     4    47    44    1
     5    42    41    1
     6    46    44    1
     7    44    41    1
     8    44    45    1
     9    41    43    1
    10    41     6    1
    11    28    27    1
    12    27    29   ar
    13    27    26   ar
    14     6     7    1
    15     6    26    1
    16    30    29    1
    17    29    21   ar
    18    26    24   ar
    19     5     1    2
    20    20    19    1
    21    21     8    1
    22    21    22   ar
    23    10     8    2
    24    24    25    1
    25    24    22   ar
    26     8     9    2
    27    22    23    1
    28    19    17   ar
    29    19    11   ar
    30     1    11    1
    31     1     4    2
    32    18    17    1
    33    17    16   ar
    34    11    12   ar
    35    16     2    1
    36    16    14   ar
    37    12    13    1
    38    12    14   ar
    39     3     2    1
    40     2    31    1
    41    14    15    1
    42    36    34    1
    43    33    31    1
    44    31    34    1
    45    31    32    1
    46    34    35    1
    47    34    37    1
    48    40    37    1
    49    37    39    1
    50    37    38    1
