@<TRIPOS>MOLECULE
anti-[2-(3-methoxythienyl)]di(1-adamantyl)methanol
 65 71 0 0 0
SMALL
GASTEIGER

@<TRIPOS>ATOM
      1 S           4.4160    7.2375   12.4971 S.2     1  LIG1       -0.0950
      2 O           7.4930    8.8196   14.1558 O.3     1  LIG1       -0.4942
      3 O           8.3055    8.0835   11.7748 O.3     1  LIG1       -0.3822
      4 C           6.0389    7.8114   12.5510 C.ar    1  LIG1        0.0637
      5 C           6.2733    8.2987   13.8106 C.ar    1  LIG1        0.1330
      6 C           5.1674    8.1904   14.7054 C.ar    1  LIG1       -0.0125
      7 C           4.1047    7.6320   14.1148 C.ar    1  LIG1       -0.0204
      8 C           7.6198    9.4889   15.3847 C.3     1  LIG1        0.0788
      9 C           6.9933    7.6921   11.3472 C.3     1  LIG1        0.1116
     10 C           7.1876    6.1420   10.9672 C.3     1  LIG1        0.0056
     11 C           8.4776    5.9093   10.1378 C.3     1  LIG1       -0.0415
     12 C           8.7257    4.4120    9.8904 C.3     1  LIG1       -0.0399
     13 C           8.9017    3.6871   11.2203 C.3     1  LIG1       -0.0473
     14 C           7.6310    3.8665   12.0440 C.3     1  LIG1       -0.0399
     15 C           6.4387    3.2807   11.2990 C.3     1  LIG1       -0.0473
     16 C           6.2844    3.9945    9.9590 C.3     1  LIG1       -0.0399
     17 C           6.0374    5.4954   10.1749 C.3     1  LIG1       -0.0415
     18 C           7.3786    5.3549   12.2943 C.3     1  LIG1       -0.0415
     19 C           7.5485    3.8057    9.1267 C.3     1  LIG1       -0.0473
     20 C           6.5816    8.7598   10.2309 C.3     1  LIG1        0.0056
     21 C           7.6022    8.8017    9.0766 C.3     1  LIG1       -0.0415
     22 C           7.3127    9.9388    8.0970 C.3     1  LIG1       -0.0399
     23 C           5.9399    9.7116    7.4835 C.3     1  LIG1       -0.0473
     24 C           4.8976    9.7091    8.5861 C.3     1  LIG1       -0.0399
     25 C           4.9037   11.0565    9.2969 C.3     1  LIG1       -0.0473
     26 C           6.2838   11.2796    9.9018 C.3     1  LIG1       -0.0399
     27 C           6.5940   10.1583   10.8957 C.3     1  LIG1       -0.0415
     28 C           5.1835    8.5916    9.6043 C.3     1  LIG1       -0.0415
     29 C           7.3388   11.2873    8.8078 C.3     1  LIG1       -0.0473
     30 H           8.1963    8.5207   12.5460 H       1  LIG1        0.2107
     31 H           5.2052    8.5237   15.6278 H       1  LIG1        0.0659
     32 H           3.2483    7.4261   14.4937 H       1  LIG1        0.0694
     33 H           8.6293    9.6984   15.4605 H       1  LIG1        0.0660
     34 H           7.0073   10.2029   15.4290 H       1  LIG1        0.0660
     35 H           7.3405    8.9636   16.0983 H       1  LIG1        0.0660
     36 H           9.2655    6.3203   10.6454 H       1  LIG1        0.0274
     37 H           8.4182    6.2936    9.2154 H       1  LIG1        0.0274
     38 H           9.5426    4.3254    9.3684 H       1  LIG1        0.0301
     39 H           9.7413    4.0655   11.7251 H       1  LIG1        0.0271
     40 H           9.0777    2.7117   11.0473 H       1  LIG1        0.0271
     41 H           7.7177    3.4376   12.9092 H       1  LIG1        0.0301
     42 H           5.6120    3.3987   11.8295 H       1  LIG1        0.0271
     43 H           6.5619    2.3008   11.0902 H       1  LIG1        0.0271
     44 H           5.5574    3.6359    9.4027 H       1  LIG1        0.0301
     45 H           5.1297    5.6299   10.5997 H       1  LIG1        0.0274
     46 H           5.9530    5.9058    9.2683 H       1  LIG1        0.0274
     47 H           8.0755    5.7744   12.8106 H       1  LIG1        0.0274
     48 H           6.5818    5.4197   12.8549 H       1  LIG1        0.0274
     49 H           7.6893    2.8344    8.8822 H       1  LIG1        0.0271
     50 H           7.3716    4.2235    8.1485 H       1  LIG1        0.0271
     51 H           7.5424    7.9346    8.5275 H       1  LIG1        0.0274
     52 H           8.5280    8.9236    9.5028 H       1  LIG1        0.0274
     53 H           7.9989    9.9481    7.4135 H       1  LIG1        0.0301
     54 H           5.8111   10.4101    6.7871 H       1  LIG1        0.0271
     55 H           5.9953    8.8484    6.9487 H       1  LIG1        0.0271
     56 H           4.0299    9.5778    8.1614 H       1  LIG1        0.0301
     57 H           4.1464   11.0236   10.0462 H       1  LIG1        0.0271
     58 H           4.7501   11.7575    8.5919 H       1  LIG1        0.0271
     59 H           6.3053   12.0881   10.4138 H       1  LIG1        0.0301
     60 H           5.9605   10.1753   11.6665 H       1  LIG1        0.0274
     61 H           7.4575   10.2772   11.3419 H       1  LIG1        0.0274
     62 H           5.1644    7.7394    9.0409 H       1  LIG1        0.0274
     63 H           4.4588    8.6115   10.3966 H       1  LIG1        0.0274
     64 H           8.2347   11.4052    9.1739 H       1  LIG1        0.0271
     65 H           7.1705   12.0054    8.1657 H       1  LIG1        0.0271
@<TRIPOS>BOND
     1    54    23    1
     2    55    23    1
     3    53    22    1
     4    23    22    1
     5    23    24    1
     6    22    29    1
     7    22    21    1
     8    50    19    1
     9    56    24    1
    10    65    29    1
    11    51    21    1
    12    24    25    1
    13    24    28    1
    14    58    25    1
    15    29    64    1
    16    29    26    1
    17    49    19    1
    18    62    28    1
    19    21    52    1
    20    21    20    1
    21    19    12    1
    22    19    16    1
    23    37    11    1
    24    46    17    1
    25    25    26    1
    26    25    57    1
    27    38    12    1
    28    44    16    1
    29    28    20    1
    30    28    63    1
    31    12    11    1
    32    12    13    1
    33    26    59    1
    34    26    27    1
    35    16    17    1
    36    16    15    1
    37    11    36    1
    38    11    10    1
    39    17    45    1
    40    17    10    1
    41    20    27    1
    42    20     9    1
    43    27    61    1
    44    27    60    1
    45    10     9    1
    46    10    18    1
    47    40    13    1
    48    43    15    1
    49    13    39    1
    50    13    14    1
    51    15    42    1
    52    15    14    1
    53     9     3    1
    54     9     4    1
    55     3    30    1
    56    14    18    1
    57    14    41    1
    58    18    47    1
    59    18    48    1
    60     1     4   ar
    61     1     7   ar
    62     4     5   ar
    63     5     2    1
    64     5     6   ar
    65     7    32    1
    66     7     6   ar
    67     2     8    1
    68     6    31    1
    69     8    34    1
    70     8    33    1
    71     8    35    1
