@<TRIPOS>MOLECULE
7213511.cif
 26 28 0 0 0
SMALL
GASTEIGER

@<TRIPOS>ATOM
      1 BR          8.1642    5.8397    2.5137 Br      1  LIG1       -0.0837
      2 O           5.5259    6.1729    4.0356 O.3     1  LIG1       -0.3733
      3 H           6.1339    6.3816    4.5760 H       1  LIG1        0.2118
      4 N           6.2326    3.9983    4.7450 N.3     1  LIG1       -0.2683
      5 C           5.6845    4.8337    3.6487 C.3     1  LIG1        0.1329
      6 C           6.6361    4.6012    2.4645 C.3     1  LIG1        0.0588
      7 H           6.1448    4.6843    1.5976 H       1  LIG1        0.0460
      8 C           7.1254    3.1790    2.6642 C.3     1  LIG1       -0.0208
      9 H           7.9942    3.0341    2.2140 H       1  LIG1        0.0292
     10 H           6.4679    2.5241    2.3209 H       1  LIG1        0.0292
     11 C           7.2670    3.0746    4.1852 C.3     1  LIG1        0.0145
     12 H           8.1822    3.3554    4.4734 H       1  LIG1        0.0464
     13 C           6.9224    1.7041    4.7584 C.3     1  LIG1       -0.0358
     14 H           7.2255    0.9807    4.1560 H       1  LIG1        0.0281
     15 H           7.3338    1.5772    5.6490 H       1  LIG1        0.0281
     16 C           5.4098    1.7344    4.8555 C.3     1  LIG1       -0.0358
     17 H           5.0814    1.0761    5.5184 H       1  LIG1        0.0281
     18 H           4.9916    1.5479    3.9779 H       1  LIG1        0.0281
     19 C           5.1235    3.1678    5.3111 C.3     1  LIG1        0.0134
     20 H           5.1301    3.2195    6.3107 H       1  LIG1        0.0463
     21 C           3.8461    3.7879    4.7627 C.3     1  LIG1       -0.0333
     22 H           3.5412    4.5405    5.3294 H       1  LIG1        0.0282
     23 H           3.1216    3.1161    4.6979 H       1  LIG1        0.0282
     24 C           4.2753    4.2765    3.3766 C.3     1  LIG1       -0.0076
     25 H           3.6682    4.9820    3.0398 H       1  LIG1        0.0307
     26 H           4.3024    3.5317    2.7257 H       1  LIG1        0.0307
@<TRIPOS>BOND
     1     7     6    1
     2     9     8    1
     3    10     8    1
     4     6     1    1
     5     6     8    1
     6     6     5    1
     7     8    11    1
     8    26    24    1
     9    25    24    1
    10    24     5    1
    11    24    21    1
    12     5     2    1
    13     5     4    1
    14    18    16    1
    15     2     3    1
    16    14    13    1
    17    11    12    1
    18    11     4    1
    19    11    13    1
    20    23    21    1
    21     4    19    1
    22    13    16    1
    23    13    15    1
    24    21    19    1
    25    21    22    1
    26    16    19    1
    27    16    17    1
    28    19    20    1
