@<TRIPOS>MOLECULE
?
 51 54 0 0 0
SMALL
GASTEIGER

@<TRIPOS>ATOM
      1 O           4.4811    6.9424   14.3693 O.3     1  LIG1       -0.4901
      2 O           1.2125    6.4708   20.2606 O.3     1  LIG1       -0.4901
      3 N           2.9609    8.1223   17.4885 N.pl3   1  LIG1       -0.3172
      4 N           3.3314   12.2951   17.9904 N.ar    1  LIG1       -0.2631
      5 C           3.8173    7.3263   16.5945 C.3     1  LIG1        0.0580
      6 H           4.7790    7.5613   16.7316 H       1  LIG1        0.0533
      7 C           3.5488    5.8943   17.0568 C.3     1  LIG1       -0.0294
      8 H           4.1347    5.6460   17.8157 H       1  LIG1        0.0285
      9 H           3.6825    5.2489   16.3188 H       1  LIG1        0.0285
     10 C           2.0797    5.9500   17.4861 C.3     1  LIG1       -0.0294
     11 H           1.4767    5.9189   16.7012 H       1  LIG1        0.0285
     12 H           1.8568    5.2015   18.0960 H       1  LIG1        0.0285
     13 C           1.9787    7.2969   18.2062 C.3     1  LIG1        0.0580
     14 H           1.0616    7.6789   18.0938 H       1  LIG1        0.0533
     15 C           3.0618    9.4803   17.6248 C.ar    1  LIG1        0.0332
     16 C           2.1237   10.2298   18.3550 C.ar    1  LIG1       -0.0225
     17 H           1.3725    9.8017   18.7478 H       1  LIG1        0.0651
     18 C           2.2988   11.5944   18.4999 C.ar    1  LIG1        0.0293
     19 H           1.6437   12.0732   18.9955 H       1  LIG1        0.0830
     20 C           4.2061   11.5723   17.2850 C.ar    1  LIG1        0.0293
     21 H           4.9471   12.0323   16.9076 H       1  LIG1        0.0830
     22 C           4.1229   10.2099   17.0577 C.ar    1  LIG1       -0.0225
     23 H           4.7758    9.7723   16.5252 H       1  LIG1        0.0651
     24 C           3.4216    7.5366   15.1301 C.3     1  LIG1        0.1080
     25 H           2.5581    7.0939   14.9326 H       1  LIG1        0.0715
     26 H           3.3405    8.5009   14.9239 H       1  LIG1        0.0715
     27 C           4.2362    6.7120   13.0346 C.ar    1  LIG1        0.1206
     28 C           3.1520    7.2351   12.3389 C.ar    1  LIG1       -0.0199
     29 H           2.5307    7.8064   12.7730 H       1  LIG1        0.0654
     30 C           2.9909    6.9079   10.9932 C.ar    1  LIG1       -0.0583
     31 H           2.2510    7.2589   10.5113 H       1  LIG1        0.0619
     32 C           3.8909    6.0794   10.3485 C.ar    1  LIG1       -0.0615
     33 H           3.7642    5.8503    9.4358 H       1  LIG1        0.0618
     34 C           4.9847    5.5838   11.0525 C.ar    1  LIG1       -0.0583
     35 H           5.6129    5.0234   10.6112 H       1  LIG1        0.0619
     36 C           5.1667    5.8995   12.3887 C.ar    1  LIG1       -0.0199
     37 H           5.9196    5.5643   12.8621 H       1  LIG1        0.0654
     38 C           2.3181    7.1782   19.6927 C.3     1  LIG1        0.1080
     39 H           3.1611    6.6755   19.8233 H       1  LIG1        0.0715
     40 H           2.4121    8.0727   20.1057 H       1  LIG1        0.0715
     41 C           1.2350    6.1819   21.6037 C.ar    1  LIG1        0.1206
     42 C           0.1906    5.3767   22.0485 C.ar    1  LIG1       -0.0199
     43 H          -0.4596    5.0545   21.4354 H       1  LIG1        0.0654
     44 C           0.1074    5.0494   23.3912 C.ar    1  LIG1       -0.0583
     45 H          -0.6052    4.5005   23.6971 H       1  LIG1        0.0619
     46 C           1.0535    5.5138   24.2935 C.ar    1  LIG1       -0.0615
     47 H           0.9902    5.2881   25.2136 H       1  LIG1        0.0618
     48 C           2.0904    6.3092   23.8379 C.ar    1  LIG1       -0.0583
     49 H           2.7396    6.6282   24.4532 H       1  LIG1        0.0619
     50 C           2.1989    6.6522   22.4876 C.ar    1  LIG1       -0.0199
     51 H           2.9157    7.1952   22.1806 H       1  LIG1        0.0654
@<TRIPOS>BOND
     1    33    32    1
     2    32    30   ar
     3    32    34   ar
     4    31    30    1
     5    35    34    1
     6    30    28   ar
     7    34    36   ar
     8    28    29    1
     9    28    27   ar
    10    36    37    1
    11    36    27   ar
    12    27     1    1
    13     1    24    1
    14    26    24    1
    15    25    24    1
    16    24     5    1
    17     9     7    1
    18    23    22    1
    19     5     6    1
    20     5     7    1
    21     5     3    1
    22    11    10    1
    23    21    20    1
    24     7    10    1
    25     7     8    1
    26    22    20   ar
    27    22    15   ar
    28    20     4   ar
    29    10    12    1
    30    10    13    1
    31     3    15    1
    32     3    13    1
    33    15    16   ar
    34     4    18   ar
    35    14    13    1
    36    13    38    1
    37    16    18   ar
    38    16    17    1
    39    18    19    1
    40    38    39    1
    41    38    40    1
    42    38     2    1
    43     2    41    1
    44    43    42    1
    45    41    42   ar
    46    41    50   ar
    47    42    44   ar
    48    51    50    1
    49    50    48   ar
    50    44    45    1
    51    44    46   ar
    52    48    46   ar
    53    48    49    1
    54    46    47    1
