@<TRIPOS>MOLECULE
?
 24 26 0 0 0
SMALL
GASTEIGER

@<TRIPOS>ATOM
      1 BR          2.8062   -1.2786    9.1107 Br      1  LIG1       -0.0672
      2 BR          3.1909   -1.1971    6.0087 Br      1  LIG1       -0.0672
      3 BR         -0.3806   -0.0961    9.6814 Br      1  LIG1       -0.0508
      4 N           1.6665    1.8212    6.5740 N.3     1  LIG1       -0.2596
      5 O           0.4168   -0.2623    6.5626 O.3     1  LIG1       -0.3679
      6 H           0.6050   -0.2201    5.7449 H       1  LIG1        0.2122
      7 C           0.5252    1.0519    8.4990 C.2     1  LIG1        0.0415
      8 C           3.6512    1.0557    7.6740 C.3     1  LIG1       -0.0077
      9 H           4.5850    0.7705    7.5107 H       1  LIG1        0.0303
     10 H           3.5937    1.4938    8.5600 H       1  LIG1        0.0303
     11 C           0.3704    2.3645    8.4886 C.2     1  LIG1       -0.0528
     12 H          -0.1313    2.8477    9.1348 H       1  LIG1        0.0597
     13 C           2.6967   -0.1031    7.5727 C.3     1  LIG1        0.1293
     14 C           1.2780    0.5538    7.2780 C.3     1  LIG1        0.1781
     15 C           3.1461    1.9706    6.5668 C.3     1  LIG1        0.0161
     16 H           3.5177    1.6809    5.6849 H       1  LIG1        0.0464
     17 C           3.3920    3.4700    6.7756 C.3     1  LIG1       -0.0354
     18 H           4.2745    3.6284    7.1943 H       1  LIG1        0.0281
     19 H           3.3518    3.9578    5.9155 H       1  LIG1        0.0281
     20 C           1.0817    2.9935    7.3359 C.3     1  LIG1        0.0331
     21 H           0.4311    3.4878    6.7591 H       1  LIG1        0.0508
     22 C           2.2589    3.9070    7.7050 C.3     1  LIG1       -0.0322
     23 H           2.0271    4.8578    7.5551 H       1  LIG1        0.0284
     24 H           2.5154    3.7859    8.6541 H       1  LIG1        0.0284
@<TRIPOS>BOND
     1    16    15    1
     2     6     5    1
     3    19    17    1
     4     2    13    1
     5     5    14    1
     6    15     4    1
     7    15    17    1
     8    15     8    1
     9     4    14    1
    10     4    20    1
    11    21    20    1
    12    17    18    1
    13    17    22    1
    14    14    13    1
    15    14     7    1
    16    20    22    1
    17    20    11    1
    18     9     8    1
    19    23    22    1
    20    13     8    1
    21    13     1    1
    22     8    10    1
    23    22    24    1
    24    11     7    2
    25    11    12    1
    26     7     3    1
