@<TRIPOS>MOLECULE
?
 29 25 0 0 0
SMALL
GASTEIGER

@<TRIPOS>ATOM
      1 C           8.7220   11.0440    2.1972 C.cat   1  LIG1        0.3387
      2 C           5.9139   15.0293    2.0471 C.cat   2  LIG2        0.3387
      3 H           4.1499   11.8854   -0.0652 H       3  LIG3        0.2222
      4 H           8.4901   11.1241    4.0739 H       1  LIG1        0.2545
      5 H           7.4004   10.3225    1.0946 H       1  LIG1        0.2545
      6 H          10.3915   11.5873    1.4788 H       1  LIG1        0.2545
      7 H           5.8071   13.2277    2.3994 H       2  LIG2        0.2545
      8 H           4.2240   14.7165    2.8779 H       2  LIG2        0.2545
      9 H           7.3920   15.7708    1.3701 H       2  LIG2        0.2545
     10 H           7.2033   10.8294    3.2331 H       1  LIG1        0.2545
     11 H           8.5204   10.8328    0.3987 H       1  LIG1        0.2545
     12 H          10.3780   11.7675    3.0301 H       1  LIG1        0.2545
     13 H           7.1848   13.6673    1.8992 H       2  LIG2        0.2545
     14 H           4.3789   16.0454    2.4429 H       2  LIG2        0.2545
     15 H           6.3814   16.7477    1.5440 H       2  LIG2        0.2545
     16 H           1.3288   10.6054    2.0805 H       0  HOH0        0.2052
     17 H           0.9768   10.9524    3.2548 H       0  HOH0        0.2052
     18 N           8.0798   10.9123    3.3440 N.pl3   1  LIG1       -0.2920
     19 N           8.1116   10.7598    1.0627 N.pl3   1  LIG1       -0.2920
     20 N           9.9838   11.4354    2.2044 N.pl3   1  LIG1       -0.2920
     21 N           6.3931   13.8025    2.1501 N.pl3   2  LIG2       -0.2920
     22 N           4.6718   15.2903    2.4117 N.pl3   2  LIG2       -0.2920
     23 N           6.6768   15.9901    1.5738 N.pl3   2  LIG2       -0.2920
     24 O           0.6648   10.7593    2.5125 O.3     4  HOH4       -0.4105
     25 O           3.0570   10.0484    1.3853 O.2     3  LIG3       -0.2226
     26 O           4.6706   11.4606    2.7300 O.3     3  LIG3       -0.1147
     27 O           4.7309   11.5078    0.2116 O.3     3  LIG3       -0.2995
     28 O           5.5120    9.5085    1.4150 O.3     3  LIG3       -0.1147
     29 P           4.4498   10.5938    1.4923 P.3     3  LIG3        0.5293
@<TRIPOS>BOND
     1     3    27    1
     2    27    29    1
     3    11    19    1
     4    19     5    1
     5    19     1    2
     6     9    23    1
     7    25    29    2
     8    28    29    1
     9     6    20    1
    10    29    26    1
    11    15    23    1
    12    23     2    2
    13    13    21    1
    14     2    21    1
    15     2    22    1
    16    16    24    1
    17    21     7    1
    18     1    20    1
    19     1    18    1
    20    20    12    1
    21    22    14    1
    22    22     8    1
    23    24    17    1
    24    10    18    1
    25    18     4    1
