@<TRIPOS>MOLECULE
C22 H20 N2
 44 47 0 0 0
SMALL
GASTEIGER

@<TRIPOS>ATOM
      1 N           2.9396    9.4421    5.8004 N.ar    1  LIG1       -0.2528
      2 N           2.3253    9.8380    2.8794 N.ar    1  LIG1       -0.2528
      3 C           3.2249    8.7365    4.7177 C.ar    1  LIG1        0.0976
      4 C           2.1125    8.8332    3.7043 C.ar    1  LIG1        0.0976
      5 C           3.8846    9.5877    6.7662 C.ar    1  LIG1        0.0289
      6 C           1.3619   10.1663    1.9769 C.ar    1  LIG1        0.0289
      7 C           5.1140    9.0532    6.6727 C.ar    1  LIG1       -0.0358
      8 C           0.1955    9.5103    1.8834 C.ar    1  LIG1       -0.0358
      9 C           6.7478    7.7207    5.4347 C.ar    1  LIG1       -0.0539
     10 C          -1.2720    7.6937    2.6005 C.ar    1  LIG1       -0.0539
     11 C           7.0763    7.0060    4.3399 C.ar    1  LIG1       -0.0609
     12 C          -1.5051    6.6257    3.3922 C.ar    1  LIG1       -0.0609
     13 C           6.1472    6.8014    3.3137 C.ar    1  LIG1       -0.0579
     14 C          -0.5598    6.2464    4.3565 C.ar    1  LIG1       -0.0579
     15 C           4.8671    7.3127    3.3537 C.ar    1  LIG1       -0.0378
     16 C           0.6288    6.9168    4.5457 C.ar    1  LIG1       -0.0378
     17 C           5.4563    8.2901    5.5418 C.ar    1  LIG1       -0.0141
     18 C          -0.0598    8.4098    2.7211 C.ar    1  LIG1       -0.0141
     19 C           4.4995    8.1010    4.5013 C.ar    1  LIG1        0.0128
     20 C           0.9141    8.0354    3.6953 C.ar    1  LIG1        0.0128
     21 C           3.9056    7.0021    2.2325 C.3     1  LIG1       -0.0299
     22 C           1.4739    6.4558    5.7106 C.3     1  LIG1       -0.0299
     23 C           4.4052    6.0278    1.1770 C.3     1  LIG1       -0.0612
     24 C           1.0031    7.0862    7.0165 C.3     1  LIG1       -0.0612
     25 H           3.6283   10.1072    7.5624 H       1  LIG1        0.0830
     26 H           1.5666   10.9361    1.4099 H       1  LIG1        0.0830
     27 H           5.7434    9.2153    7.3664 H       1  LIG1        0.0639
     28 H          -0.4567    9.7903    1.2214 H       1  LIG1        0.0639
     29 H           7.3804    7.9009    6.1751 H       1  LIG1        0.0624
     30 H          -1.9315    8.0167    1.9076 H       1  LIG1        0.0624
     31 H           7.9780    6.6332    4.2147 H       1  LIG1        0.0618
     32 H          -2.3243    6.0603    3.2874 H       1  LIG1        0.0618
     33 H           6.4178    6.2695    2.5183 H       1  LIG1        0.0620
     34 H          -0.6915    5.4853    4.9310 H       1  LIG1        0.0620
     35 H           3.0520    6.6657    2.6088 H       1  LIG1        0.0311
     36 H           1.3830    5.4975    5.7604 H       1  LIG1        0.0311
     37 H           3.6539    7.8603    1.8096 H       1  LIG1        0.0311
     38 H           2.4416    6.6433    5.5719 H       1  LIG1        0.0311
     39 H           5.2290    6.4199    0.7389 H       1  LIG1        0.0233
     40 H           1.1141    8.0655    6.9668 H       1  LIG1        0.0233
     41 H           3.7137    5.9120    0.4599 H       1  LIG1        0.0233
     42 H           1.4855    6.7652    7.7735 H       1  LIG1        0.0233
     43 H           4.6933    5.1399    1.5758 H       1  LIG1        0.0233
     44 H           0.0213    6.8262    7.2156 H       1  LIG1        0.0233
@<TRIPOS>BOND
     1    41    23    1
     2    39    23    1
     3    23    43    1
     4    23    21    1
     5    28     8    1
     6    26     6    1
     7    37    21    1
     8     8     6   ar
     9     8    18   ar
    10    30    10    1
    11     6     2   ar
    12    21    35    1
    13    21    15    1
    14    33    13    1
    15    10    18   ar
    16    10    12   ar
    17    18    20   ar
    18     2     4   ar
    19    32    12    1
    20    13    15   ar
    21    13    11   ar
    22    15    19   ar
    23    12    14   ar
    24    20     4   ar
    25    20    16   ar
    26     4     3    1
    27    31    11    1
    28    11     9   ar
    29    14    16   ar
    30    14    34    1
    31    19     3   ar
    32    19    17   ar
    33    16    22    1
    34     3     1   ar
    35     9    17   ar
    36     9    29    1
    37    17     7   ar
    38    38    22    1
    39    22    36    1
    40    22    24    1
    41     1     5   ar
    42     7     5   ar
    43     7    27    1
    44     5    25    1
    45    40    24    1
    46    24    44    1
    47    24    42    1
