@<TRIPOS>MOLECULE
?
 48 45 0 0 0
SMALL
GASTEIGER

@<TRIPOS>ATOM
      1 C           6.1031    3.1868   13.1489 C.3     1  LIG1        0.1460
      2 N           5.4779    3.8689   12.2075 N.3     1  LIG1       -0.2853
      3 C           6.0257    4.1033   10.8514 C.3     1  LIG1       -0.0112
      4 H           6.9951    3.9678   10.8640 H       1  LIG1        0.0391
      5 H           5.8263    5.0211   10.5732 H       1  LIG1        0.0391
      6 H           5.6155    3.4742   10.2206 H       1  LIG1        0.0391
      7 C           4.1600    4.4874   12.4247 C.3     1  LIG1       -0.0112
      8 H           3.8632    4.3095   13.3404 H       1  LIG1        0.0391
      9 H           3.5147    4.1092   11.7915 H       1  LIG1        0.0391
     10 H           4.2274    5.4546   12.2850 H       1  LIG1        0.0391
     11 N           7.0610    2.3173   12.9830 N.3     1  LIG1       -0.2853
     12 C           7.3191    1.5987   11.7268 C.3     1  LIG1       -0.0112
     13 H           6.5132    1.6140   11.1702 H       1  LIG1        0.0391
     14 H           7.5629    0.6703   11.9259 H       1  LIG1        0.0391
     15 H           8.0562    2.0334   11.2473 H       1  LIG1        0.0391
     16 C           7.9501    1.9179   14.0782 C.3     1  LIG1       -0.0112
     17 H           7.7866    2.4917   14.8562 H       1  LIG1        0.0391
     18 H           8.8822    2.0110   13.7920 H       1  LIG1        0.0391
     19 H           7.7723    0.9849   14.3186 H       1  LIG1        0.0391
     20 C           5.6442    3.4106   14.5711 C.3     1  LIG1        0.1460
     21 N           4.9860    2.4139   15.1274 N.3     1  LIG1       -0.2853
     22 C           4.8684    2.1854   16.5716 C.3     1  LIG1       -0.0112
     23 H           5.5883    2.6590   17.0373 H       1  LIG1        0.0391
     24 H           4.9344    1.2264   16.7575 H       1  LIG1        0.0391
     25 H           4.0023    2.5200   16.8853 H       1  LIG1        0.0391
     26 C           4.3235    1.3748   14.3168 C.3     1  LIG1       -0.0112
     27 H           4.4239    1.5893   13.3668 H       1  LIG1        0.0391
     28 H           3.3713    1.3407   14.5455 H       1  LIG1        0.0391
     29 H           4.7351    0.5054   14.5015 H       1  LIG1        0.0391
     30 N           5.9497    4.5616   15.1294 N.3     1  LIG1       -0.2853
     31 C           5.2986    5.1000   16.3275 C.3     1  LIG1       -0.0112
     32 H           4.3895    4.7419   16.3962 H       1  LIG1        0.0391
     33 H           5.2613    6.0778   16.2662 H       1  LIG1        0.0391
     34 H           5.8120    4.8432   17.1211 H       1  LIG1        0.0391
     35 C           7.0108    5.4169   14.5764 C.3     1  LIG1       -0.0112
     36 H           7.4310    4.9645   13.8141 H       1  LIG1        0.0391
     37 H           7.6848    5.5877   15.2660 H       1  LIG1        0.0391
     38 H           6.6236    6.2663   14.2789 H       1  LIG1        0.0391
     39 S           8.7599    2.2016    6.3650 S.3     2  LIG2        0.0254
     40 C           8.0806    2.3538    7.9381 C.3     2  LIG2        0.4534
     41 F           8.6951    3.2233    8.7734 F       2  LIG2       -0.1596
     42 F           8.0734    1.2005    8.6687 F       2  LIG2       -0.1596
     43 F           6.7946    2.7638    7.9809 F       2  LIG2       -0.1596
     44 S           9.9161    4.2106   11.6999 S.3     3  LIG3        0.0254
     45 C          10.6647    4.8974   13.0540 C.3     3  LIG3        0.4534
     46 F          11.9696    5.1118   12.9894 F       3  LIG3       -0.1596
     47 F          10.2086    6.0802   13.4627 F       3  LIG3       -0.1596
     48 F          10.5671    4.1858   14.1802 F       3  LIG3       -0.1596
@<TRIPOS>BOND
     1    39    40    1
     2    40    43    1
     3    40    42    1
     4    40    41    1
     5     6     3    1
     6     5     3    1
     7     3     4    1
     8     3     2    1
     9    13    12    1
    10    15    12    1
    11    44    45    1
    12    12    14    1
    13    12    11    1
    14     9     7    1
    15     2     7    1
    16     2     1    1
    17    10     7    1
    18     7     8    1
    19    11     1    1
    20    11    16    1
    21    46    45    1
    22    45    47    1
    23    45    48    1
    24     1    20    1
    25    27    26    1
    26    18    16    1
    27    36    35    1
    28    16    19    1
    29    16    17    1
    30    38    35    1
    31    26    29    1
    32    26    28    1
    33    26    21    1
    34    20    21    1
    35    20    30    1
    36    35    30    1
    37    35    37    1
    38    21    22    1
    39    30    31    1
    40    33    31    1
    41    31    32    1
    42    31    34    1
    43    22    24    1
    44    22    25    1
    45    22    23    1
