@<TRIPOS>MOLECULE
C24 H29 N1 O7
 61 63 0 0 0
SMALL
GASTEIGER

@<TRIPOS>ATOM
      1 O           6.6476    3.6091    0.8918 O.3     1  LIG1       -0.4828
      2 O          11.6374    0.7541   -1.3721 O.3     1  LIG1       -0.4915
      3 O          10.3902    2.0264   -3.2316 O.3     1  LIG1       -0.4914
      4 O           4.0954    2.3881   -1.8763 O.co2   1  LIG1       -0.2455
      5 O           3.7898    0.3668   -1.0756 O.co2   1  LIG1       -0.2455
      6 O           1.2413    6.3230    3.5001 O.2     1  LIG1       -0.2506
      7 O           0.3339    4.6916    2.1815 O.3     1  LIG1       -0.4588
      8 N           1.9327    1.7597    4.6196 N.4     1  LIG1        0.2245
      9 H           2.8270    2.0187    5.0967 H       1  LIG1        0.2000
     10 H           1.1752    1.6981    4.9344 H       1  LIG1        0.2000
     11 H           2.0837    1.3646    3.7694 H       1  LIG1        0.2000
     12 C           6.4600    2.7344   -0.2693 C.3     1  LIG1        0.1424
     13 H           6.1909    3.2910   -1.0284 H       1  LIG1        0.0796
     14 C           5.3084    1.7750    0.0463 C.3     1  LIG1        0.1299
     15 H           5.6800    0.9311    0.3836 H       1  LIG1        0.0506
     16 C           4.6830    2.5318    1.1963 C.ar    1  LIG1        0.0125
     17 C           3.4441    2.3163    1.8180 C.ar    1  LIG1       -0.0457
     18 H           2.8707    1.6519    1.5055 H       1  LIG1        0.0626
     19 C           3.0902    3.0781    2.8752 C.ar    1  LIG1        0.0011
     20 C           3.9692    4.0580    3.3338 C.ar    1  LIG1       -0.0498
     21 H           3.7249    4.5761    4.0658 H       1  LIG1        0.0623
     22 C           5.2116    4.2812    2.7209 C.ar    1  LIG1       -0.0192
     23 H           5.8157    4.9070    3.0486 H       1  LIG1        0.0654
     24 C           5.4830    3.5244    1.6158 C.ar    1  LIG1        0.1255
     25 C           7.8039    2.1265   -0.5889 C.ar    1  LIG1       -0.0025
     26 C           8.4304    1.3441    0.3252 C.ar    1  LIG1       -0.0514
     27 H           7.9938    1.1338    1.1195 H       1  LIG1        0.0623
     28 C           9.7188    0.8465    0.0991 C.ar    1  LIG1       -0.0159
     29 H          10.1483    0.3206    0.7360 H       1  LIG1        0.0655
     30 C          10.3336    1.1569   -1.0964 C.ar    1  LIG1        0.1615
     31 C           9.6870    1.8905   -2.0521 C.ar    1  LIG1        0.1619
     32 C           8.4469    2.3702   -1.8172 C.ar    1  LIG1       -0.0096
     33 H           8.0139    2.8652   -2.4732 H       1  LIG1        0.0659
     34 C          12.3241    0.0539   -0.3572 C.3     1  LIG1        0.0790
     35 H          13.2066   -0.1667   -0.6633 H       1  LIG1        0.0660
     36 H          11.8474   -0.7516   -0.1454 H       1  LIG1        0.0660
     37 H          12.3866    0.6054    0.4259 H       1  LIG1        0.0660
     38 C           9.6941    2.6292   -4.3335 C.3     1  LIG1        0.0790
     39 H          10.2769    2.6703   -5.0951 H       1  LIG1        0.0660
     40 H           9.4191    3.5168   -4.0914 H       1  LIG1        0.0660
     41 H           8.9212    2.1034   -4.5509 H       1  LIG1        0.0660
     42 C           4.3255    1.4647   -1.0908 C.2     1  LIG1        0.3673
     43 C           1.7769    2.8806    3.5736 C.3     1  LIG1        0.0117
     44 H           1.1327    2.5677    2.9039 H       1  LIG1        0.0908
     45 C           1.1504    4.0606    4.2944 C.3     1  LIG1        0.0919
     46 H           1.7380    4.3632    5.0040 H       1  LIG1        0.0437
     47 H           0.3056    3.7938    4.6907 H       1  LIG1        0.0437
     48 C           0.9203    5.1969    3.2755 C.2     1  LIG1        0.3134
     49 C           0.0224    5.5817    0.9829 C.3     1  LIG1        0.1052
     50 C           1.4076    6.1075    0.4499 C.3     1  LIG1       -0.0254
     51 H           1.9693    5.3611    0.2293 H       1  LIG1        0.0268
     52 H           1.8312    6.6359    1.1283 H       1  LIG1        0.0268
     53 H           1.2660    6.6436   -0.3332 H       1  LIG1        0.0268
     54 C          -0.9062    6.6590    1.3473 C.3     1  LIG1       -0.0254
     55 H          -0.4767    7.2592    1.9610 H       1  LIG1        0.0268
     56 H          -1.6873    6.2819    1.7620 H       1  LIG1        0.0268
     57 H          -1.1646    7.1387    0.5578 H       1  LIG1        0.0268
     58 C          -0.5475    4.5659    0.0128 C.3     1  LIG1       -0.0254
     59 H           0.1156    3.8964   -0.1758 H       1  LIG1        0.0268
     60 H          -0.7976    5.0071   -0.8015 H       1  LIG1        0.0268
     61 H          -1.3203    4.1503    0.4019 H       1  LIG1        0.0268
@<TRIPOS>BOND
     1    39    38    1
     2    41    38    1
     3    38    40    1
     4    38     3    1
     5     3    31    1
     6    33    32    1
     7    31    32   ar
     8    31    30   ar
     9     4    42   ar
    10    32    25   ar
    11     2    30    1
    12     2    34    1
    13    30    28   ar
    14    42     5   ar
    15    42    14    1
    16    13    12    1
    17    60    58    1
    18    35    34    1
    19    25    12    1
    20    25    26   ar
    21    34    36    1
    22    34    37    1
    23    53    50    1
    24    12    14    1
    25    12     1    1
    26    59    58    1
    27    58    61    1
    28    58    49    1
    29    14    15    1
    30    14    16    1
    31    28    26   ar
    32    28    29    1
    33    51    50    1
    34    26    27    1
    35    50    49    1
    36    50    52    1
    37    57    54    1
    38     1    24    1
    39    49    54    1
    40    49     7    1
    41    16    24   ar
    42    16    17   ar
    43    54    56    1
    44    54    55    1
    45    18    17    1
    46    24    22   ar
    47    17    19   ar
    48     7    48    1
    49    22    23    1
    50    22    20   ar
    51    19    20   ar
    52    19    43    1
    53    44    43    1
    54    48     6    2
    55    48    45    1
    56    20    21    1
    57    43    45    1
    58    43     8    1
    59    11     8    1
    60    45    47    1
    61    45    46    1
    62     8    10    1
    63     8     9    1
