@<TRIPOS>MOLECULE
1,1-Dioxo-tetrahydro-1?6-thiopyran-3-one
 17 17 0 0 0
SMALL
GASTEIGER

@<TRIPOS>ATOM
      1 S           1.1167   -0.3983    6.4827 S.O2    1  LIG1       -0.0242
      2 O           1.0451   -0.5167    5.0547 O.2     1  LIG1       -0.1739
      3 O           0.0827    0.3299    7.1435 O.2     1  LIG1       -0.1739
      4 O           3.0236    1.2790    9.0293 O.2     1  LIG1       -0.2957
      5 C           2.6487    0.3463    6.9107 C.3     1  LIG1        0.1237
      6 H           3.3707   -0.1107    6.4518 H       1  LIG1        0.0579
      7 H           2.6499    1.2733    6.6271 H       1  LIG1        0.0579
      8 C           2.8710    0.2747    8.3875 C.2     1  LIG1        0.1542
      9 C           2.8811   -1.0952    8.9692 C.3     1  LIG1        0.0089
     10 H           3.0067   -1.0305    9.9283 H       1  LIG1        0.0343
     11 H           3.6331   -1.5872    8.6041 H       1  LIG1        0.0343
     12 C           1.6035   -1.8660    8.6887 C.3     1  LIG1       -0.0269
     13 H           1.6911   -2.7584    9.0589 H       1  LIG1        0.0285
     14 H           0.8692   -1.4284    9.1455 H       1  LIG1        0.0285
     15 C           1.2625   -1.9813    7.2242 C.3     1  LIG1        0.0666
     16 H           0.4265   -2.4622    7.1252 H       1  LIG1        0.0500
     17 H           1.9551   -2.4868    6.7705 H       1  LIG1        0.0500
@<TRIPOS>BOND
     1     2     1    2
     2     6     5    1
     3     1     5    1
     4     1     3    2
     5     1    15    1
     6     7     5    1
     7    17    15    1
     8     5     8    1
     9    16    15    1
    10    15    12    1
    11     8     9    1
    12     8     4    2
    13    11     9    1
    14    12     9    1
    15    12    13    1
    16    12    14    1
    17     9    10    1
