@<TRIPOS>MOLECULE
?
 31 31 0 0 0
SMALL
GASTEIGER

@<TRIPOS>ATOM
      1 S           9.2384    1.4160    2.3524 S.3     1  LIG1       -0.0033
      2 S          10.0994    3.2609    0.1427 S.2     1  LIG1       -0.0033
      3 O           9.0349    0.8516   -0.1203 O.3     1  LIG1       -0.4778
      4 N           7.3257   -0.6288   -1.8235 N.pl3   1  LIG1       -0.3074
      5 C           9.4607    1.8270    0.7310 C.2     1  LIG1        0.2115
      6 C           6.9444   -1.6739   -1.0695 C.3     1  LIG1        0.1422
      7 N           5.6010   -1.6471   -1.0297 N.pl3   1  LIG1       -0.3137
      8 C           5.1426   -0.5739   -1.7587 C.2     1  LIG1        0.0074
      9 H           4.2531   -0.3353   -1.8855 H       1  LIG1        0.0793
     10 C           9.1154    1.0614   -1.5446 C.3     1  LIG1        0.1064
     11 H          10.0209    1.2939   -1.8028 H       1  LIG1        0.0713
     12 H           8.5215    1.7794   -1.8158 H       1  LIG1        0.0713
     13 C           6.2109    0.0638   -2.2525 C.2     1  LIG1        0.0078
     14 H           6.2033    0.8280   -2.7836 H       1  LIG1        0.0793
     15 C           7.8563   -2.6114   -0.3439 C.3     1  LIG1       -0.0048
     16 H           8.7418   -2.5045   -0.7490 H       1  LIG1        0.0334
     17 C           8.6996   -0.2396   -2.1866 C.3     1  LIG1        0.0480
     18 H           8.7613   -0.1522   -3.1505 H       1  LIG1        0.0498
     19 H           9.3121   -0.9401   -1.9116 H       1  LIG1        0.0498
     20 C           8.0025   -2.2041    1.1267 C.3     1  LIG1       -0.0591
     21 H           8.2349   -1.2733    1.1790 H       1  LIG1        0.0234
     22 H           8.6930   -2.7297    1.5372 H       1  LIG1        0.0234
     23 H           7.1713   -2.3522    1.5840 H       1  LIG1        0.0234
     24 C           7.4974   -4.0894   -0.4779 C.3     1  LIG1       -0.0591
     25 H           7.4166   -4.3157   -1.4076 H       1  LIG1        0.0234
     26 H           6.6626   -4.2571   -0.0337 H       1  LIG1        0.0234
     27 H           8.1871   -4.6243   -0.0773 H       1  LIG1        0.0234
     28 C           4.7042   -2.6032   -0.3799 C.3     1  LIG1        0.0023
     29 H           5.2221   -3.2718    0.0740 H       1  LIG1        0.0428
     30 H           4.1493   -3.0228   -1.0418 H       1  LIG1        0.0428
     31 H           4.1505   -2.1424    0.2547 H       1  LIG1        0.0428
@<TRIPOS>BOND
     1    18    17    1
     2    14    13    1
     3    13     4    1
     4    13     8    2
     5    17    19    1
     6    17     4    1
     7    17    10    1
     8     9     8    1
     9     4     6    1
    10    12    10    1
    11    11    10    1
    12     8     7    1
    13    10     3    1
    14    25    24    1
    15     6     7    1
    16     6    15    1
    17    30    28    1
    18     7    28    1
    19    16    15    1
    20    24    15    1
    21    24    27    1
    22    24    26    1
    23    28    29    1
    24    28    31    1
    25    15    20    1
    26     3     5    1
    27     2     5    2
    28     5     1    1
    29    20    21    1
    30    20    22    1
    31    20    23    1
