@<TRIPOS>MOLECULE
?
 146 138 0 0 0
SMALL
GASTEIGER

@<TRIPOS>ATOM
      1 O           5.8815    9.1711   11.3613 O.3     1  LIG1       -0.4867
      2 O           3.4461    8.8717   13.8251 O.3     1  LIG1       -0.4867
      3 O           2.6008   10.0397   10.1598 O.3     1  LIG1       -0.4867
      4 N           4.0431   11.0599   12.3152 N.4     1  LIG1        0.2424
      5 N           7.6423    3.8933   12.0412 N.pl3   1  LIG1       -0.4113
      6 H           8.3564    3.8555   12.5729 H       1  LIG1        0.3712
      7 H           7.8477    3.5582   11.2436 H       1  LIG1        0.3712
      8 H           6.9804    3.4202   12.4024 H       1  LIG1        0.3712
      9 N           0.4674    4.1716   13.5633 N.pl3   1  LIG1       -0.4113
     10 H           0.8809    3.4940   13.9652 H       1  LIG1        0.3712
     11 H           0.3709    3.9893   12.6967 H       1  LIG1        0.3712
     12 H          -0.3343    4.2892   13.9307 H       1  LIG1        0.3712
     13 N           3.1427    6.8238    5.6096 N.pl3   1  LIG1       -0.4113
     14 H           2.9203    7.2433    4.8567 H       1  LIG1        0.3712
     15 H           2.6423    6.0924    5.6989 H       1  LIG1        0.3712
     16 H           4.0013    6.5938    5.5771 H       1  LIG1        0.3712
     17 C           3.0194   11.8660   11.5602 C.3     1  LIG1        0.0033
     18 H           3.2519   12.8058   11.6008 H       1  LIG1        0.0848
     19 H           2.1487   11.7515   11.9722 H       1  LIG1        0.0848
     20 C           2.9541   11.4200   10.1050 C.3     1  LIG1        0.1291
     21 H           2.2863   11.9269    9.6179 H       1  LIG1        0.0751
     22 H           3.8137   11.5365    9.6707 H       1  LIG1        0.0751
     23 C           5.4754   11.4073   11.9316 C.3     1  LIG1        0.0033
     24 H           5.5201   11.6383   10.9899 H       1  LIG1        0.0848
     25 H           5.7819   12.1687   12.4491 H       1  LIG1        0.0848
     26 C           6.3341   10.2239   12.2076 C.3     1  LIG1        0.1291
     27 H           7.2638   10.4308   12.0209 H       1  LIG1        0.0751
     28 H           6.2590    9.9629   13.1392 H       1  LIG1        0.0751
     29 C           3.8598   11.1601   13.8089 C.3     1  LIG1        0.0033
     30 H           3.5439   12.0461   14.0484 H       1  LIG1        0.0848
     31 H           4.7028   11.0022   14.2595 H       1  LIG1        0.0848
     32 C           6.3633    7.9101   11.5643 C.ar    1  LIG1        0.1212
     33 C           7.3056    7.5889   12.5100 C.ar    1  LIG1       -0.0139
     34 H           7.6749    8.2472   13.0519 H       1  LIG1        0.0656
     35 C           7.7004    6.2656   12.6440 C.ar    1  LIG1        0.0069
     36 H           8.3333    6.0463   13.2894 H       1  LIG1        0.0682
     37 C           7.2101    5.3187   11.8890 C.ar    1  LIG1        0.1419
     38 C           6.2788    5.6126   10.8884 C.ar    1  LIG1        0.0069
     39 H           5.9540    4.9456   10.3283 H       1  LIG1        0.0682
     40 C           5.8544    6.9262   10.7524 C.ar    1  LIG1       -0.0139
     41 H           5.2202    7.1416   10.1071 H       1  LIG1        0.0656
     42 C           2.6828    9.3112    8.9766 C.ar    1  LIG1        0.1212
     43 C           3.0508    9.8781    7.7629 C.ar    1  LIG1       -0.0139
     44 H           3.2029   10.7918    7.6879 H       1  LIG1        0.0656
     45 C           2.9144    7.7243    6.7624 C.ar    1  LIG1        0.1419
     46 C           2.5123    7.1849    7.9618 C.ar    1  LIG1        0.0069
     47 H           2.3242    6.2762    8.0207 H       1  LIG1        0.0682
     48 C           2.3851    7.9839    9.0801 C.ar    1  LIG1       -0.0139
     49 H           2.1018    7.6248    9.8899 H       1  LIG1        0.0656
     50 C           2.8433   10.1140   14.2168 C.3     1  LIG1        0.1291
     51 H           2.6870   10.1388   15.1748 H       1  LIG1        0.0751
     52 H           2.0006   10.2515   13.7582 H       1  LIG1        0.0751
     53 C           2.6706    7.7284   13.8191 C.ar    1  LIG1        0.1212
     54 C           3.2301    6.6302   13.2143 C.ar    1  LIG1       -0.0139
     55 H           4.0818    6.6797   12.8429 H       1  LIG1        0.0656
     56 C           2.5286    5.4792   13.1635 C.ar    1  LIG1        0.0069
     57 H           2.8977    4.7324   12.7475 H       1  LIG1        0.0682
     58 C           0.7526    6.4679   14.3650 C.ar    1  LIG1        0.0069
     59 H          -0.0817    6.3974   14.7709 H       1  LIG1        0.0682
     60 C           1.4370    7.6635   14.4320 C.ar    1  LIG1       -0.0139
     61 H           1.0801    8.3989   14.8744 H       1  LIG1        0.0656
     62 C           1.2669    5.3988   13.7216 C.ar    1  LIG1        0.1419
     63 C           3.1840    9.0399    6.6589 C.ar    1  LIG1        0.0069
     64 H           3.4630    9.3909    5.8430 H       1  LIG1        0.0682
     65 O          11.4263   -0.3258    1.2238 O.3     2  LIG2       -0.4867
     66 O           9.2239   -0.4562    4.0469 O.3     2  LIG2       -0.4867
     67 O           7.9616   -0.3550    0.6149 O.3     2  LIG2       -0.4867
     68 N           9.5204   -2.2117    1.9159 N.4     2  LIG2        0.2424
     69 N           7.2663    4.7620    4.3209 N.pl3   2  LIG2       -0.4113
     70 H           6.6222    4.8370    3.7120 H       2  LIG2        0.3712
     71 H           7.9311    5.3202    4.1220 H       2  LIG2        0.3712
     72 H           6.9409    4.9656    5.1246 H       2  LIG2        0.3712
     73 N           8.2844    4.8358   -1.4328 N.pl3   2  LIG2       -0.4113
     74 H           9.0994    4.9675   -1.7637 H       2  LIG2        0.3712
     75 H           8.1394    5.4048   -0.7631 H       2  LIG2        0.3712
     76 H           7.6800    4.9700   -2.0701 H       2  LIG2        0.3712
     77 N          13.3834    4.7979    2.3279 N.pl3   2  LIG2       -0.4113
     78 H          12.9838    5.3755    1.7819 H       2  LIG2        0.3712
     79 H          14.2655    4.8513    2.2223 H       2  LIG2        0.3712
     80 H          13.1749    4.9926    3.1722 H       2  LIG2        0.3712
     81 C           9.1999   -2.6713    3.3122 C.3     2  LIG2        0.0033
     82 H          10.0197   -2.8215    3.8074 H       2  LIG2        0.0848
     83 H           8.7056   -3.5042    3.2817 H       2  LIG2        0.0848
     84 C           8.3678   -1.6015    3.9982 C.3     2  LIG2        0.1291
     85 H           7.5651   -1.4101    3.4908 H       2  LIG2        0.0751
     86 H           8.1157   -1.8803    4.8912 H       2  LIG2        0.0751
     87 C           8.4564   -2.5878    0.9052 C.3     2  LIG2        0.0033
     88 H           8.6857   -3.4292    0.4810 H       2  LIG2        0.0848
     89 H           7.6001   -2.6939    1.3496 H       2  LIG2        0.0848
     90 C           8.3629   -1.5026   -0.1299 C.3     2  LIG2        0.1291
     91 H           9.2198   -1.3572   -0.5581 H       2  LIG2        0.0751
     92 H           7.7053   -1.7257   -0.8078 H       2  LIG2        0.0751
     93 C          10.9164   -2.5751    1.4856 C.3     2  LIG2        0.0033
     94 H          10.9475   -2.6693    0.5216 H       2  LIG2        0.0848
     95 H          11.1717   -3.4219    1.8834 H       2  LIG2        0.0848
     96 C          11.8786   -1.4941    1.9240 C.3     2  LIG2        0.1291
     97 H          11.8382   -1.3619    2.8840 H       2  LIG2        0.0751
     98 H          12.7889   -1.7180    1.6744 H       2  LIG2        0.0751
     99 C           8.6770    0.7862    4.2336 C.ar    2  LIG2        0.1212
    100 C           7.3216    1.0384    4.4365 C.ar    2  LIG2       -0.0139
    101 H           6.7227    0.3344    4.5461 H       2  LIG2        0.0656
    102 C           6.8767    2.3546    4.4711 C.ar    2  LIG2        0.0069
    103 H           5.9723    2.5351    4.5888 H       2  LIG2        0.0682
    104 C           7.7701    3.3927    4.3330 C.ar    2  LIG2        0.1419
    105 C           9.5681    1.8378    4.1524 C.ar    2  LIG2       -0.0139
    106 H          10.4778    1.6618    4.0672 H       2  LIG2        0.0656
    107 C           8.3928    2.4241   -1.7657 C.ar    2  LIG2        0.0069
    108 H           8.6093    2.5937   -2.6526 H       2  LIG2        0.0682
    109 C           8.1732    3.4443   -0.9295 C.ar    2  LIG2        0.1419
    110 C           7.8485    3.2578    0.4039 C.ar    2  LIG2        0.0069
    111 H           7.6891    3.9813    0.9661 H       2  LIG2        0.0682
    112 C           7.7673    1.9512    0.8727 C.ar    2  LIG2       -0.0139
    113 H           7.5460    1.7899    1.7616 H       2  LIG2        0.0656
    114 C           8.2978    1.1096   -1.3172 C.ar    2  LIG2       -0.0139
    115 H           8.4222    0.3980   -1.9037 H       2  LIG2        0.0656
    116 C           8.0152    0.8853    0.0162 C.ar    2  LIG2        0.1212
    117 C          13.0937    1.0589    2.3340 C.ar    2  LIG2       -0.0139
    118 H          13.5234    0.3238    2.7054 H       2  LIG2        0.0656
    119 C          12.0059    0.8792    1.5323 C.ar    2  LIG2        0.1212
    120 C          13.5637    2.3583    2.5998 C.ar    2  LIG2        0.0069
    121 H          14.2925    2.4888    3.1620 H       2  LIG2        0.0682
    122 C          11.3956    1.9654    0.9275 C.ar    2  LIG2       -0.0139
    123 H          10.6848    1.8364    0.3410 H       2  LIG2        0.0656
    124 C          12.9337    3.4349    2.0133 C.ar    2  LIG2        0.1419
    125 C          11.8567    3.2500    1.2015 C.ar    2  LIG2        0.0069
    126 H          11.4269    3.9845    0.8280 H       2  LIG2        0.0682
    127 C           9.1299    3.1501    4.1971 C.ar    2  LIG2        0.0069
    128 H           9.7335    3.8543    4.1382 H       2  LIG2        0.0682
    129 I           1.5236    8.3896    2.9069 I       3  LIG3        0.0000
    130 I           6.4160    8.2863    4.4646 I       4  LIG4        0.0000
    131 I           4.2641    4.6932    2.4336 I       5  LIG5        0.0000
    132 I           5.4145    4.7543    7.2677 I       6  LIG6        0.0000
    133 I          12.9744    4.5108    5.8388 I       7  LIG7        0.0000
    134 I           9.8276    6.5263    2.3236 I       8  LIG8        0.0000
    135 I           3.9012   13.4652    4.9636 I       9  LIG9        0.0000
    136 I           9.2249    3.0407    8.9269 I      10  LIG10       0.0000
    137 O          12.7812    4.1640   10.8113 O.3    11  HOH11      -0.4105
    138 O           7.1699    6.8515    0.3552 O.3    12  HOH12       0.0000
    139 O           0.1760    6.5168    0.0000 O.3    13  HOH13       0.0000
    140 O          11.8614   14.6261   11.3430 O.3    14  HOH14      -0.4105
    141 H           9.5843   -1.3391    1.9686 H       2  LIG2        0.2037
    142 H           3.9227   10.1089   12.1163 H       1  LIG1        0.2037
    143 H          13.3454    3.8157   10.1679 H       0  HOH0        0.2052
    144 H          12.0970    3.6046   11.0609 H       0  HOH0        0.2052
    145 H          11.3189   14.4082   10.6550 H       0  HOH0        0.2052
    146 H          11.4046   15.3187   10.8986 H       0  HOH0        0.2052
@<TRIPOS>BOND
     1   108   107    1
     2    76    73    1
     3   115   114    1
     4   107   114   ar
     5   107   109   ar
     6    74    73    1
     7    73   109    1
     8    73    75    1
     9   114   116   ar
    10   109   110   ar
    11    92    90    1
    12    91    90    1
    13    90    67    1
    14    90    87    1
    15   116    67    1
    16   116   112   ar
    17   123   122    1
    18   110   112   ar
    19   110   111    1
    20    88    87    1
    21    94    93    1
    22   126   125    1
    23   112   113    1
    24    87    89    1
    25    87    68    1
    26   122   125   ar
    27   122   119   ar
    28   125   124   ar
    29    65   119    1
    30    65    96    1
    31    93    95    1
    32    93    68    1
    33    93    96    1
    34   119   117   ar
    35    98    96    1
    36    78    77    1
    37    68   141    1
    38    68    81    1
    39    96    97    1
    40   124    77    1
    41   124   120   ar
    42    79    77    1
    43    77    80    1
    44   117   120   ar
    45   117   118    1
    46   120   121    1
    47    83    81    1
    48    81    82    1
    49    81    84    1
    50    85    84    1
    51    70    69    1
    52    84    66    1
    53    84    86    1
    54    66    99    1
    55   106   105    1
    56    71    69    1
    57   128   127    1
    58   105   127   ar
    59   105    99   ar
    60   127   104   ar
    61    99   100   ar
    62    69   104    1
    63    69    72    1
    64   104   102   ar
    65   100   102   ar
    66   100   101    1
    67   102   103    1
    68    14    13    1
    69    16    13    1
    70    13    15    1
    71    13    45    1
    72    64    63    1
    73    63    45   ar
    74    63    43   ar
    75    45    46   ar
    76    44    43    1
    77    43    42   ar
    78    46    47    1
    79    46    48   ar
    80    42    48   ar
    81    42     3    1
    82    48    49    1
    83    21    20    1
    84    22    20    1
    85    20     3    1
    86    20    17    1
    87    41    40    1
    88   143   137    1
    89    39    38    1
    90   145   140    1
    91    40    38   ar
    92    40    32   ar
    93   137   144    1
    94    38    37   ar
    95   146   140    1
    96    24    23    1
    97     7     5    1
    98     1    32    1
    99     1    26    1
   100    17    18    1
   101    17    19    1
   102    17     4    1
   103    32    33   ar
   104    37     5    1
   105    37    35   ar
   106    23    26    1
   107    23     4    1
   108    23    25    1
   109    27    26    1
   110     5     8    1
   111     5     6    1
   112   142     4    1
   113    26    28    1
   114     4    29    1
   115    33    35   ar
   116    33    34    1
   117    35    36    1
   118    11     9    1
   119    57    56    1
   120    55    54    1
   121    56    54   ar
   122    56    62   ar
   123    54    53   ar
   124     9    62    1
   125     9    12    1
   126     9    10    1
   127    62    58   ar
   128    52    50    1
   129    29    30    1
   130    29    50    1
   131    29    31    1
   132    53     2    1
   133    53    60   ar
   134     2    50    1
   135    50    51    1
   136    58    60   ar
   137    58    59    1
   138    60    61    1
