@<TRIPOS>MOLECULE
?
 51 53 0 0 0
SMALL
GASTEIGER

@<TRIPOS>ATOM
      1 BR          1.4013    8.8388    1.7214 Br      1  LIG1       -0.0503
      2 S           1.9557    2.8620    3.4982 S.O2    2  LIG2        0.0754
      3 O          -1.0917    5.3740   -1.5982 O.3     1  LIG1       -0.4771
      4 O           1.1701    2.4398    4.6166 O.2     2  LIG2       -0.1498
      5 O           1.8822    2.1266    2.2727 O.2     2  LIG2       -0.1498
      6 O          -3.2105    6.0119   -1.8629 O.2     1  LIG1       -0.2451
      7 O           3.3513    6.0445    6.0008 O.2     2  LIG2       -0.5040
      8 O           1.2138    7.3306    5.3491 O.2     2  LIG2       -0.2683
      9 N          -0.2702    6.3799    3.8627 N.am    2  LIG2       -0.2652
     10 N           1.5905    4.4317    3.1843 N.pl3   2  LIG2       -0.1975
     11 N          -2.4324    6.8886    3.2841 N.ar    2  LIG2       -0.2401
     12 C           5.8745    2.1509    4.1682 C.ar    2  LIG2       -0.0599
     13 C           6.2287    3.2421    4.9395 C.ar    2  LIG2       -0.0610
     14 C          -3.5772    8.8674    4.0167 C.ar    2  LIG2       -0.0435
     15 C           3.9851    4.1274    4.7671 C.ar    2  LIG2        0.0451
     16 C           5.3004    4.2246    5.2464 C.ar    2  LIG2       -0.0491
     17 C           1.8774    5.3479    4.2625 C.2     2  LIG2        0.1547
     18 C           3.0159    5.2108    5.0075 C.2     2  LIG2        0.1534
     19 C           0.9290    6.4332    4.5348 C.2     2  LIG2        0.2685
     20 C          -1.8047    7.3416   -0.4717 C.ar    1  LIG1        0.0599
     21 C          -3.5217    7.6786    3.3318 C.ar    2  LIG2        0.0297
     22 C          -2.4329    9.2919    4.6665 C.ar    2  LIG2       -0.0571
     23 C          -2.5786    9.3234    0.6511 C.ar    1  LIG1       -0.0599
     24 C          -1.3320    7.2961    3.9478 C.ar    2  LIG2        0.1251
     25 C          -2.1099    6.1868   -1.3712 C.2     1  LIG1        0.3368
     26 C           4.5713    2.0114    3.7037 C.ar    2  LIG2       -0.0344
     27 C          -1.2845    8.5094    4.6390 C.ar    2  LIG2       -0.0215
     28 C           1.9158    4.9356    1.8205 C.3     2  LIG2        0.0239
     29 C          -0.5357    7.5103    0.0843 C.ar    1  LIG1       -0.0338
     30 C          -1.3175    9.5120    1.2033 C.ar    1  LIG1       -0.0477
     31 C           3.6394    2.9911    4.0099 C.ar    2  LIG2        0.1194
     32 C          -2.8237    8.2512   -0.1853 C.ar    1  LIG1       -0.0477
     33 C          -0.3190    8.5959    0.9208 C.ar    1  LIG1        0.0187
     34 H          -1.1584   10.2886    1.7654 H       1  LIG1        0.0629
     35 H           2.8527    5.0821    1.6803 H       2  LIG2        0.0446
     36 H          -0.3562    5.6915    3.3531 H       2  LIG2        0.1566
     37 H           7.0811    3.3550    5.2963 H       2  LIG2        0.0618
     38 H           5.5425    5.0379    5.7721 H       2  LIG2        0.0625
     39 H          -2.4361   10.0855    5.1461 H       2  LIG2        0.0619
     40 H           0.1279    6.8925   -0.0851 H       1  LIG1        0.0637
     41 H          -3.6507    8.1308   -0.5008 H       1  LIG1        0.0626
     42 H          -4.4163    9.3717    4.0568 H       2  LIG2        0.0633
     43 H           6.5471    1.4400    3.8815 H       2  LIG2        0.0618
     44 H          -4.2495    7.3305    2.9099 H       2  LIG2        0.0830
     45 H           4.3443    1.2999    3.1753 H       2  LIG2        0.0637
     46 H          -0.5357    8.7851    5.0998 H       2  LIG2        0.0652
     47 H           1.4825    5.8673    1.7579 H       2  LIG2        0.0446
     48 H           1.5738    4.3278    1.1394 H       2  LIG2        0.0446
     49 H          -3.2072    9.9065    0.8139 H       1  LIG1        0.0618
     50 H           2.8026    6.6818    6.0100 H       2  LIG2        0.2923
     51 H          -1.3472    4.7954   -2.2037 H       1  LIG1        0.2954
@<TRIPOS>BOND
     1    51     3    1
     2     6    25    2
     3     3    25    1
     4    25    20    1
     5    41    32    1
     6    20    32   ar
     7    20    29   ar
     8    32    23   ar
     9    40    29    1
    10    29    33   ar
    11    23    49    1
    12    23    30   ar
    13    33    30   ar
    14    33     1    1
    15    48    28    1
    16    30    34    1
    17    35    28    1
    18    47    28    1
    19    28    10    1
    20     5     2    2
    21    44    21    1
    22    45    26    1
    23    10     2    1
    24    10    17    1
    25    11    21   ar
    26    11    24   ar
    27    21    14   ar
    28    36     9    1
    29     2    31    1
    30     2     4    2
    31    26    31   ar
    32    26    12   ar
    33     9    24    1
    34     9    19   am
    35    43    12    1
    36    24    27   ar
    37    31    15   ar
    38    14    42    1
    39    14    22   ar
    40    12    13   ar
    41    17    19    1
    42    17    18    2
    43    19     8    2
    44    27    22   ar
    45    27    46    1
    46    22    39    1
    47    15    18    1
    48    15    16   ar
    49    13    16   ar
    50    13    37    1
    51    18     7    1
    52    16    38    1
    53     7    50    1
