@<TRIPOS>MOLECULE
4-aminopyridinium_5-acetylaminosalicylate
 36 36 0 0 0
SMALL
GASTEIGER

@<TRIPOS>ATOM
      1 O          -2.0265    0.0065    7.3194 O.co2   1  LIG1       -0.2405
      2 O          -2.9144   -0.0905    5.2673 O.co2   1  LIG1       -0.2405
      3 O          -2.0528    1.3254    3.4286 O.3     1  LIG1       -0.5059
      4 H          -2.5575    0.7915    3.8351 H       1  LIG1        0.2922
      5 O           2.4712    1.1448    7.7996 O.2     1  LIG1       -0.2758
      6 N           1.9959    3.1254    6.8043 N.am    1  LIG1       -0.2857
      7 H           2.2030    3.9799    6.7656 H       1  LIG1        0.1548
      8 C          -1.0267    1.2983    5.5951 C.ar    1  LIG1        0.1061
      9 C          -1.1001    1.7795    4.2754 C.ar    1  LIG1        0.1311
     10 C          -0.1821    2.7329    3.8347 C.ar    1  LIG1       -0.0176
     11 H          -0.2472    3.0825    2.9533 H       1  LIG1        0.0655
     12 C           0.8216    3.1693    4.6787 C.ar    1  LIG1       -0.0370
     13 H           1.4422    3.8208    4.3748 H       1  LIG1        0.0637
     14 C           0.9311    2.6611    5.9748 C.ar    1  LIG1        0.0344
     15 C          -0.0078    1.7426    6.4262 C.ar    1  LIG1       -0.0228
     16 H           0.0485    1.4136    7.3148 H       1  LIG1        0.0645
     17 C          -2.0521    0.3327    6.1019 C.2     1  LIG1        0.3901
     18 C           2.7056    2.3475    7.6402 C.2     1  LIG1        0.2141
     19 C           3.8477    3.0059    8.3644 C.3     1  LIG1        0.0125
     20 H           3.8115    2.7693    9.3141 H       1  LIG1        0.0323
     21 H           3.7789    3.9785    8.2669 H       1  LIG1        0.0323
     22 H           4.6968    2.6984    7.9838 H       1  LIG1        0.0323
     23 N           9.0352    5.2157    1.7222 N.pl3   2  LIG2       -0.3411
     24 H           8.4427    5.8462    1.8795 H       2  LIG2        0.1462
     25 N          11.8201    2.2821    0.9979 N.pl3   2  LIG2       -0.3581
     26 H          12.3044    1.9690    1.6629 H       2  LIG2        0.1423
     27 H          11.9382    1.9732    0.1824 H       2  LIG2        0.1423
     28 C           9.2149    4.7593    0.4660 C.2     2  LIG2       -0.0084
     29 H           8.7061    5.1355   -0.2414 H       2  LIG2        0.0779
     30 C          10.1105    3.7695    0.1904 C.2     2  LIG2       -0.0278
     31 H          10.2035    3.4442   -0.6975 H       2  LIG2        0.0648
     32 C          10.8995    3.2300    1.2284 C.2     2  LIG2        0.0236
     33 C          10.6950    3.7373    2.5276 C.2     2  LIG2       -0.0413
     34 H          11.2059    3.4036    3.2555 H       2  LIG2        0.0609
     35 C           9.7628    4.7070    2.7355 C.3     2  LIG2        0.0623
     36 H           9.6212    5.0337    3.6165 H       2  LIG2        0.0564
@<TRIPOS>BOND
     1    31    30    1
     2    29    28    1
     3    27    25    1
     4    30    28    2
     5    30    32    1
     6    28    23    1
     7    25    32    1
     8    25    26    1
     9    32    33    2
    10    23    24    1
    11    23    35    1
    12    33    35    1
    13    33    34    1
    14    35    36    1
    15    11    10    1
    16     3     4    1
    17     3     9    1
    18    10     9   ar
    19    10    12   ar
    20     9     8   ar
    21    13    12    1
    22    12    14   ar
    23     2    17   ar
    24     8    17    1
    25     8    15   ar
    26    14    15   ar
    27    14     6    1
    28    17     1   ar
    29    15    16    1
    30     7     6    1
    31     6    18   am
    32    18     5    2
    33    18    19    1
    34    22    19    1
    35    21    19    1
    36    19    20    1
