@<TRIPOS>MOLECULE
?
 37 34 0 0 0
SMALL
GASTEIGER

@<TRIPOS>ATOM
      1 S           1.8622    2.9636    3.9119 S.3     1  LIG1        0.2666
      2 O           0.6841    2.1846    3.4986 O.2     1  LIG1       -0.1133
      3 O           3.0627    2.1047    3.9126 O.3     1  LIG1       -0.0200
      4 O           2.0752    4.0979    2.9944 O.2     1  LIG1       -0.1133
      5 O           1.6404    3.4868    5.2774 O.3     1  LIG1       -0.0200
      6 O           0.2710   -0.1598    4.9232 O.3     2  HOH2       -0.4105
      7 O           3.5581   -0.1824    5.3879 O.3     3  HOH3       -0.4105
      8 N           0.7449    1.6298   -0.0277 N.2     4  LIG4        0.0054
      9 N          -0.2458    1.6089    0.9762 N.pl3   4  LIG4       -0.1480
     10 N          -1.2970    1.4765   -0.8865 N.pl3   4  LIG4       -0.1952
     11 N          -2.6068    1.4635    1.1093 N.3     4  LIG4       -0.2744
     12 N           0.5384    1.5537   -2.3770 N.pl3   4  LIG4       -0.2500
     13 N          -2.3919   -0.0911    8.9060 N.2     5  LIG5        0.0054
     14 N          -1.4175   -0.0786    7.8932 N.pl3   5  LIG5       -0.1480
     15 N          -0.3346    0.0550    9.7298 N.pl3   5  LIG5       -0.1952
     16 N           0.9403    0.0835    7.7089 N.3     5  LIG5       -0.2744
     17 N          -2.1394   -0.0597   11.2553 N.pl3   5  LIG5       -0.2500
     18 C          -1.4591    1.5292    0.4567 C.3     4  LIG4        0.2955
     19 C           0.0534    1.5616   -1.1330 C.cat   4  LIG4        0.3885
     20 C          -0.1902    0.0131    8.3827 C.3     5  LIG5        0.2955
     21 C          -1.6851   -0.0300   10.0024 C.cat   5  LIG5        0.3885
     22 H           0.3566    0.5623    4.4409 H       0  HOH0        0.2052
     23 H          -0.5802   -0.2168    4.9316 H       0  HOH0        0.2052
     24 H           3.2852    0.3785    4.9127 H       0  HOH0        0.2052
     25 H           3.0280   -0.8070    5.1899 H       0  HOH0        0.2052
     26 H          -0.0377    1.7331    1.7822 H       4  LIG4        0.1909
     27 H          -1.8942    1.6192   -1.5033 H       4  LIG4        0.2482
     28 H          -2.6338    1.6344    2.0043 H       4  LIG4        0.1233
     29 H          -3.3292    1.5071    0.7163 H       4  LIG4        0.1233
     30 H           1.3990    1.7226   -2.4813 H       4  LIG4        0.2412
     31 H           0.0151    1.4433   -3.0668 H       4  LIG4        0.2412
     32 H          -1.6858   -0.0479    7.0634 H       5  LIG5        0.1909
     33 H           0.2671   -0.0075   10.3385 H       5  LIG5        0.2482
     34 H           0.9325   -0.0522    6.8206 H       5  LIG5        0.1233
     35 H           1.6809    0.0523    8.0294 H       5  LIG5        0.1233
     36 H          -2.9788   -0.1720   11.4061 H       5  LIG5        0.2412
     37 H          -1.6373    0.1874   11.9675 H       5  LIG5        0.2412
@<TRIPOS>BOND
     1    31    12    1
     2    30    12    1
     3    12    19    1
     4    27    10    1
     5    19    10    1
     6    19     8    2
     7    10    18    1
     8     8     9    1
     9    18     9    1
    10    18    11    1
    11    29    11    1
    12     9    26    1
    13    11    28    1
    14     4     1    2
    15     2     1    2
    16     1     3    1
    17     1     5    1
    18    22     6    1
    19    24     7    1
    20     6    23    1
    21    25     7    1
    22    34    16    1
    23    32    14    1
    24    16    35    1
    25    16    20    1
    26    14    20    1
    27    14    13    1
    28    20    15    1
    29    13    21    2
    30    15    21    1
    31    15    33    1
    32    21    17    1
    33    17    36    1
    34    17    37    1
