@<TRIPOS>MOLECULE
?
 68 71 0 0 0
SMALL
GASTEIGER

@<TRIPOS>ATOM
      1 B           3.4833    4.2995   11.4142 B       1  LIG1        0.0000
      2 O           4.0437    1.4388   21.9756 O.2     2  LIG2        0.0000
      3 O           1.2460    1.1885   15.8772 O.2     2  LIG2        0.0000
      4 N           6.2161    1.6417   22.5867 N.am    2  LIG2        0.0000
      5 H           6.0202    1.9207   23.3983 H       2  LIG2        0.0000
      6 H           7.0569    1.5552   22.3426 H       2  LIG2        0.0000
      7 N           4.6466    0.6712   19.4194 N.pl3   2  LIG2        0.0000
      8 N           1.0229   -1.0043   16.3785 N.am    2  LIG2        0.0000
      9 H           0.4153   -1.1362   15.7555 H       2  LIG2        0.0000
     10 H           1.2812   -1.6724   16.8904 H       2  LIG2        0.0000
     11 C           5.2380    1.3495   21.7272 C.2     2  LIG2        0.0000
     12 C           5.7440    0.8504   20.3808 C.3     2  LIG2        0.0000
     13 H           6.3962    1.5000   20.0147 H       2  LIG2        0.0000
     14 H           6.2116   -0.0121   20.5059 H       2  LIG2        0.0000
     15 C           1.5510    0.2045   16.5469 C.2     2  LIG2        0.0000
     16 C           4.5185    1.5431   18.4056 C.2     2  LIG2        0.0000
     17 H           5.1346    2.2604   18.3183 H       2  LIG2        0.0000
     18 C           3.5019    1.4026   17.4945 C.2     2  LIG2        0.0000
     19 H           3.4067    2.0276   16.7837 H       2  LIG2        0.0000
     20 C           2.6099    0.3402   17.6154 C.3     2  LIG2        0.0000
     21 C           2.7550   -0.5312   18.6860 C.2     2  LIG2        0.0000
     22 H           2.1451   -1.2517   18.8004 H       2  LIG2        0.0000
     23 C           3.7809   -0.3505   19.5790 C.2     2  LIG2        0.0000
     24 H           3.8819   -0.9466   20.3106 H       2  LIG2        0.0000
     25 C           1.8499    4.0982   11.5176 C.ar    1  LIG1        0.0000
     26 C           1.2017    3.9178   12.7493 C.ar    1  LIG1        0.0000
     27 H           1.7299    3.8259   13.5343 H       1  LIG1        0.0000
     28 C          -0.1838    3.8680   12.8671 C.ar    1  LIG1        0.0000
     29 H          -0.5812    3.7759   13.7235 H       1  LIG1        0.0000
     30 C          -0.9844    3.9518   11.7446 C.ar    1  LIG1        0.0000
     31 H          -1.9292    3.8845   11.8166 H       1  LIG1        0.0000
     32 C          -0.3831    4.1352   10.5095 C.ar    1  LIG1        0.0000
     33 H          -0.9189    4.1983    9.7267 H       1  LIG1        0.0000
     34 C           1.0023    4.2283   10.4082 C.ar    1  LIG1        0.0000
     35 H           1.3882    4.3863    9.5558 H       1  LIG1        0.0000
     36 C           4.1411    3.5788   10.0961 C.ar    1  LIG1        0.0000
     37 C           3.4998    2.6037    9.3315 C.ar    1  LIG1        0.0000
     38 H           2.6174    2.3466    9.5710 H       1  LIG1        0.0000
     39 C           4.0985    1.9911    8.2310 C.ar    1  LIG1        0.0000
     40 H           3.6178    1.3448    7.7282 H       1  LIG1        0.0000
     41 C           5.3898    2.3238    7.8732 C.ar    1  LIG1        0.0000
     42 H           5.8012    1.9138    7.1211 H       1  LIG1        0.0000
     43 C           6.0787    3.2623    8.6243 C.ar    1  LIG1        0.0000
     44 H           6.9715    3.4914    8.3964 H       1  LIG1        0.0000
     45 C           5.4664    3.8671    9.7096 C.ar    1  LIG1        0.0000
     46 H           5.9603    4.5018   10.2148 H       1  LIG1        0.0000
     47 C           3.6971    5.9334   11.3705 C.ar    1  LIG1        0.0000
     48 C           3.4044    6.7204   12.4994 C.ar    1  LIG1        0.0000
     49 H           3.1279    6.2863   13.2994 H       1  LIG1        0.0000
     50 C           3.5027    8.1049   12.4948 C.ar    1  LIG1        0.0000
     51 H           3.2820    8.5949   13.2780 H       1  LIG1        0.0000
     52 C           3.9199    8.7815   11.3553 C.ar    1  LIG1        0.0000
     53 H           4.0125    9.7277   11.3559 H       1  LIG1        0.0000
     54 C           4.1991    8.0422   10.2130 C.ar    1  LIG1        0.0000
     55 H           4.4758    8.4846    9.4185 H       1  LIG1        0.0000
     56 C           4.0736    6.6487   10.2282 C.ar    1  LIG1        0.0000
     57 H           4.2520    6.1673    9.4277 H       1  LIG1        0.0000
     58 C           4.2553    3.6176   12.6803 C.ar    1  LIG1        0.0000
     59 C           3.9247    2.3166   13.0941 C.ar    1  LIG1        0.0000
     60 H           3.2094    1.8690   12.6587 H       1  LIG1        0.0000
     61 C           4.5968    1.6578   14.1101 C.ar    1  LIG1        0.0000
     62 H           4.3256    0.7862   14.3703 H       1  LIG1        0.0000
     63 C           5.6645    2.2709   14.7456 C.ar    1  LIG1        0.0000
     64 H           6.1331    1.8224   15.4412 H       1  LIG1        0.0000
     65 C           6.0404    3.5469   14.3550 C.ar    1  LIG1        0.0000
     66 H           6.7761    3.9742   14.7761 H       1  LIG1        0.0000
     67 C           5.3418    4.2007   13.3476 C.ar    1  LIG1        0.0000
     68 H           5.6108    5.0777   13.1011 H       1  LIG1        0.0000
@<TRIPOS>BOND
     1    42    41    1
     2    40    39    1
     3    41    39   ar
     4    41    43   ar
     5    39    37   ar
     6    44    43    1
     7    43    45   ar
     8    37    38    1
     9    37    36   ar
    10    55    54    1
    11    57    56    1
    12    35    34    1
    13    45    36   ar
    14    45    46    1
    15    33    32    1
    16    36     1    1
    17    54    56   ar
    18    54    52   ar
    19    56    47   ar
    20    34    32   ar
    21    34    25   ar
    22    32    30   ar
    23    52    53    1
    24    52    50   ar
    25    47     1    1
    26    47    48   ar
    27     1    25    1
    28     1    58    1
    29    25    26   ar
    30    30    31    1
    31    30    28   ar
    32    50    48   ar
    33    50    51    1
    34    48    49    1
    35    60    59    1
    36    58    59   ar
    37    58    67   ar
    38    26    28   ar
    39    26    27    1
    40    28    29    1
    41    59    61   ar
    42    68    67    1
    43    67    65   ar
    44    61    62    1
    45    61    63   ar
    46    65    63   ar
    47    65    66    1
    48    63    64    1
    49     9     8    1
    50     3    15    2
    51     8    15   am
    52     8    10    1
    53    15    20    1
    54    19    18    1
    55    18    20    1
    56    18    16    2
    57    20    21    1
    58    17    16    1
    59    16     7    1
    60    21    22    1
    61    21    23    2
    62     7    23    1
    63     7    12    1
    64    23    24    1
    65    13    12    1
    66    12    14    1
    67    12    11    1
    68    11     2    2
    69    11     4   am
    70     6     4    1
    71     4     5    1
