@<TRIPOS>MOLECULE
SF 305 (4-pyridyl)-CONH-(CH2)8-NHCO-(4-pyridyl), HOOC-(CH2)8-COOH
 42 41 0 0 0
SMALL
GASTEIGER

@<TRIPOS>ATOM
      1 N           3.1056    2.1130    7.4167 N.ar    1  LIG1       -0.2632
      2 C           2.0545    2.2635    6.6011 C.ar    1  LIG1        0.0283
      3 H           1.4773    3.0046    6.7386 H       1  LIG1        0.0830
      4 C           1.7713    1.3907    5.5689 C.ar    1  LIG1       -0.0315
      5 H           1.0083    1.5236    5.0188 H       1  LIG1        0.0640
      6 C           2.6207    0.3178    5.3505 C.ar    1  LIG1        0.0395
      7 C           3.7101    0.1566    6.1846 C.ar    1  LIG1       -0.0315
      8 H           4.3115   -0.5679    6.0585 H       1  LIG1        0.0640
      9 C           3.9139    1.0684    7.2113 C.ar    1  LIG1        0.0283
     10 H           4.6570    0.9450    7.7914 H       1  LIG1        0.0830
     11 C           2.2720   -0.6386    4.2496 C.2     1  LIG1        0.2442
     12 N           3.2798   -1.3128    3.6844 N.am    1  LIG1       -0.3113
     13 H           4.1211   -1.1021    3.9191 H       1  LIG1        0.1490
     14 O           1.0984   -0.7915    3.9006 O.2     1  LIG1       -0.2702
     15 C           3.0028   -2.2605    2.6108 C.3     1  LIG1        0.0119
     16 H           2.6718   -1.7676    1.8189 H       1  LIG1        0.0462
     17 H           2.2899   -2.8826    2.9029 H       1  LIG1        0.0462
     18 C           4.2303   -3.0561    2.2243 C.3     1  LIG1       -0.0374
     19 H           4.5396   -3.5851    3.0019 H       1  LIG1        0.0280
     20 H           4.9577   -2.4369    1.9648 H       1  LIG1        0.0280
     21 C           3.9230   -3.9928    1.0627 C.3     1  LIG1       -0.0516
     22 H           3.2194   -4.6305    1.3420 H       1  LIG1        0.0266
     23 H           3.5653   -3.4611    0.3075 H       1  LIG1        0.0266
     24 C           5.1336   -4.7763    0.5814 C.3     1  LIG1       -0.0530
     25 H           5.4897   -5.3119    1.3342 H       1  LIG1        0.0265
     26 H           5.8388   -4.1402    0.3023 H       1  LIG1        0.0265
     27 C           2.2678    4.7691    9.4213 C.2     2  LIG2        0.3047
     28 O           3.2579    3.8736    9.4463 O.3     2  LIG2       -0.4806
     29 H           3.2188    3.2468    8.7165 H       2  LIG2        0.2951
     30 O           1.4054    4.7664    8.5815 O.2     2  LIG2       -0.2510
     31 C           2.3955    5.7477   10.5460 C.3     2  LIG2        0.0448
     32 H           3.1734    6.3326   10.3633 H       2  LIG2        0.0377
     33 H           2.5913    5.2445   11.3770 H       2  LIG2        0.0377
     34 C           1.1851    6.6289   10.7969 C.3     2  LIG2       -0.0430
     35 H           0.3837    6.0627   10.9262 H       2  LIG2        0.0270
     36 H           1.0284    7.2093   10.0115 H       2  LIG2        0.0270
     37 C           1.4069    7.4912   12.0321 C.3     2  LIG2       -0.0526
     38 H           1.6112    6.8973   12.7972 H       2  LIG2        0.0265
     39 H           2.2000    8.0629   11.8773 H       2  LIG2        0.0265
     40 C           0.2388    8.3783   12.4086 C.3     2  LIG2       -0.0530
     41 H          -0.5573    7.8122   12.5679 H       2  LIG2        0.0265
     42 H           0.0343    8.9806   11.6506 H       2  LIG2        0.0265
@<TRIPOS>BOND
     1    26    24    1
     2    23    21    1
     3    24    21    1
     4    24    25    1
     5    21    22    1
     6    21    18    1
     7    16    15    1
     8    20    18    1
     9    18    15    1
    10    18    19    1
    11    15    17    1
    12    15    12    1
    13    12    13    1
    14    12    11   am
    15    14    11    2
    16    11     6    1
    17     5     4    1
    18     6     4   ar
    19     6     7   ar
    20     4     2   ar
    21     8     7    1
    22     7     9   ar
    23     2     3    1
    24     2     1   ar
    25     9     1   ar
    26     9    10    1
    27    30    27    2
    28    29    28    1
    29    27    28    1
    30    27    31    1
    31    36    34    1
    32    32    31    1
    33    31    34    1
    34    31    33    1
    35    34    35    1
    36    34    37    1
    37    42    40    1
    38    39    37    1
    39    37    40    1
    40    37    38    1
    41    40    41    1
