@<TRIPOS>MOLECULE
?
 25 24 0 0 0
SMALL
GASTEIGER

@<TRIPOS>ATOM
      1 CL          4.1874    2.1290    1.9067 Cl      1  LIG1        0.0000
      2 O           3.8276    4.1351    4.1921 O.3     2  LIG2       -0.4771
      3 O           5.4521    5.3274    3.2507 O.2     2  LIG2       -0.2451
      4 N           4.5500   10.6403    9.5704 N.pl3   2  LIG2       -0.3277
      5 H           4.9864   11.2802    9.9437 H       2  LIG2        0.1474
      6 N           4.0435    9.0030    8.2797 N.pl3   2  LIG2       -0.2831
      7 C           5.0065    9.8699    8.6181 C.3     2  LIG2        0.1270
      8 H           5.8546    9.9153    8.2405 H       2  LIG2        0.0747
      9 C           3.2545   10.2653    9.8838 C.2     2  LIG2        0.0051
     10 H           2.7053   10.6544   10.5259 H       2  LIG2        0.0791
     11 C           2.9463    9.2411    9.0905 C.2     2  LIG2        0.0122
     12 H           2.1429    8.7726    9.0817 H       2  LIG2        0.0797
     13 C           4.1492    8.0324    7.2436 C.ar    2  LIG2        0.0352
     14 C           4.8277    8.3686    6.0694 C.ar    2  LIG2       -0.0395
     15 H           5.1890    9.2190    5.9660 H       2  LIG2        0.0636
     16 C           4.9568    7.4409    5.0758 C.ar    2  LIG2       -0.0460
     17 H           5.4199    7.6587    4.2987 H       2  LIG2        0.0626
     18 C           4.3962    6.1600    5.2140 C.ar    2  LIG2        0.0589
     19 C           3.6890    5.8635    6.3697 C.ar    2  LIG2       -0.0460
     20 H           3.2905    5.0280    6.4612 H       2  LIG2        0.0626
     21 C           3.5684    6.7864    7.3808 C.ar    2  LIG2       -0.0395
     22 H           3.0971    6.5736    8.1534 H       2  LIG2        0.0636
     23 C           4.6171    5.1800    4.1300 C.2     2  LIG2        0.3368
     24 O           6.5803   12.3198   10.3561 O.3     3  HOH3        0.0000
     25 H           3.9682    3.8554    3.2562 H       2  LIG2        0.2954
@<TRIPOS>BOND
     1     3    23    2
     2    25     2    1
     3    23     2    1
     4    23    18    1
     5    17    16    1
     6    16    18   ar
     7    16    14   ar
     8    18    19   ar
     9    15    14    1
    10    14    13   ar
    11    19    20    1
    12    19    21   ar
    13    13    21   ar
    14    13     6    1
    15    21    22    1
    16     8     7    1
    17     6     7    1
    18     6    11    1
    19     7     4    1
    20    12    11    1
    21    11     9    2
    22     4     9    1
    23     4     5    1
    24     9    10    1
