@<TRIPOS>MOLECULE
?
 50 56 0 0 0
SMALL
GASTEIGER

@<TRIPOS>ATOM
      1 S          -0.2387    5.2105    6.2192 S.3     1  LIG1       -0.1206
      2 S           1.9986    3.2672    5.9975 S.3     1  LIG1       -0.1287
      3 S          -2.3875    2.7494    6.1492 S.3     1  LIG1       -0.1206
      4 S          -0.2254    0.8070    5.9263 S.3     1  LIG1       -0.1287
      5 S           0.4824    6.3738    3.2999 S.3     1  LIG1       -0.0916
      6 S           0.1208    1.6063    2.7317 S.3     1  LIG1       -0.0916
      7 S          -2.0350    3.5885    3.0369 S.3     1  LIG1       -0.0916
      8 S           2.6493    4.3780    3.0335 S.3     1  LIG1       -0.0916
      9 C          -1.1845    2.0228    5.0931 C.3     1  LIG1        0.1290
     10 C          -1.0552    2.3662    3.7983 C.2     1  LIG1        0.0552
     11 C          -0.2740    4.8307    8.9141 C.ar    1  LIG1       -0.0285
     12 C           1.0155    4.4915    5.2274 C.3     1  LIG1        0.1290
     13 C           0.9481    2.9846    7.4370 C.3     1  LIG1        0.0408
     14 H           1.4918    2.9346    8.2512 H       1  LIG1        0.0441
     15 C           1.3069    4.9990    4.0117 C.2     1  LIG1        0.0552
     16 C          -1.2771    2.8112    7.5919 C.3     1  LIG1        0.0757
     17 C          -0.0850    1.8194    7.4065 C.3     1  LIG1        0.0408
     18 H           0.0148    1.2527    8.2009 H       1  LIG1        0.0441
     19 C          -0.1894    4.0356    7.6115 C.3     1  LIG1        0.0757
     20 C          -2.1273    2.6895    8.8574 C.ar    1  LIG1       -0.0285
     21 C           1.5527    6.4892    1.9267 C.2     1  LIG1       -0.0170
     22 H           1.4401    7.1585    1.2900 H       1  LIG1        0.0699
     23 C          -3.3076    3.3830    8.9613 C.ar    1  LIG1       -0.0559
     24 H          -3.6365    3.8372    8.2205 H       1  LIG1        0.0621
     25 C          -3.5453    2.7529   11.2484 C.ar    1  LIG1        0.0518
     26 C          -4.0182    3.4180   10.1444 C.ar    1  LIG1       -0.0441
     27 H          -4.8172    3.8922   10.1946 H       1  LIG1        0.0630
     28 C          -4.2506    2.8612   12.5105 C.1     1  LIG1        0.0992
     29 C          -0.8986    5.9575   11.3640 C.ar    1  LIG1        0.0518
     30 C           0.4141    4.4556   10.0444 C.ar    1  LIG1       -0.0559
     31 H           1.0879    3.8172    9.9908 H       1  LIG1        0.0621
     32 C          -2.3987    2.0136   11.1485 C.ar    1  LIG1       -0.0441
     33 H          -2.0902    1.5310   11.8812 H       1  LIG1        0.0630
     34 C          -1.1911    3.5138    1.5109 C.2     1  LIG1       -0.0170
     35 H          -1.4195    4.0814    0.8098 H       1  LIG1        0.0699
     36 N          -1.7527    6.8085   13.6557 N.1     1  LIG1       -0.1909
     37 C          -1.2122    5.8392    9.0093 C.ar    1  LIG1       -0.0559
     38 H          -1.6345    6.1384    8.2372 H       1  LIG1        0.0621
     39 C          -0.2302    2.6404    1.3785 C.2     1  LIG1       -0.0170
     40 H           0.2524    2.5737    0.5864 H       1  LIG1        0.0699
     41 C          -1.5392    6.4134   10.2153 C.ar    1  LIG1       -0.0441
     42 H          -2.1733    7.0918   10.2616 H       1  LIG1        0.0630
     43 C           2.5150    5.6133    1.8139 C.2     1  LIG1       -0.0170
     44 H           3.1126    5.6483    1.1030 H       1  LIG1        0.0699
     45 N          -4.8059    2.9687   13.5024 N.1     1  LIG1       -0.1909
     46 C           0.0952    5.0357   11.2685 C.ar    1  LIG1       -0.0441
     47 H           0.5685    4.7890   12.0319 H       1  LIG1        0.0630
     48 C          -1.6996    1.9844    9.9578 C.ar    1  LIG1       -0.0559
     49 H          -0.9219    1.4769    9.8986 H       1  LIG1        0.0621
     50 C          -1.3540    6.4517   12.6510 C.1     1  LIG1        0.0992
@<TRIPOS>BOND
     1    40    39    1
     2    35    34    1
     3    44    43    1
     4    22    21    1
     5    39    34    2
     6    39     6    1
     7    34     7    1
     8    43    21    2
     9    43     8    1
    10    21     5    1
    11     6    10    1
    12     8    15    2
    13     7    10    2
    14     5    15    1
    15    10     9    1
    16    15    12    1
    17     9     4    1
    18     9     3    1
    19    12     2    1
    20    12     1    1
    21     4    17    1
    22     2    13    1
    23     3    16    1
    24     1    19    1
    25    17    13    1
    26    17    16    1
    27    17    18    1
    28    13    19    1
    29    13    14    1
    30    16    19    1
    31    16    20    1
    32    19    11    1
    33    24    23    1
    34    38    37    1
    35    20    23   ar
    36    20    48   ar
    37    11    37   ar
    38    11    30   ar
    39    23    26   ar
    40    37    41   ar
    41    49    48    1
    42    48    32   ar
    43    31    30    1
    44    30    46   ar
    45    26    27    1
    46    26    25   ar
    47    41    42    1
    48    41    29   ar
    49    32    25   ar
    50    32    33    1
    51    25    28    1
    52    46    29   ar
    53    46    47    1
    54    29    50    1
    55    28    45    3
    56    50    36    3
