@<TRIPOS>MOLECULE
7215608.cif
 38 40 0 0 0
SMALL
GASTEIGER

@<TRIPOS>ATOM
      1 N          -1.3665    8.4427   -2.8299 N.ar    1  LIG1       -0.2631
      2 C          -2.0689    8.0101   -1.7936 C.ar    1  LIG1        0.0293
      3 H          -2.9941    8.0784   -1.8471 H       1  LIG1        0.0830
      4 C          -1.5404    7.4674   -0.6452 C.ar    1  LIG1       -0.0223
      5 H          -2.0946    7.1861    0.0467 H       1  LIG1        0.0651
      6 C          -0.1667    7.3497   -0.5441 C.ar    1  LIG1        0.0365
      7 C           0.5951    7.8249   -1.5983 C.ar    1  LIG1       -0.0223
      8 H           1.5239    7.7891   -1.5631 H       1  LIG1        0.0651
      9 C          -0.0413    8.3510   -2.7003 C.ar    1  LIG1        0.0293
     10 H           0.4865    8.6625   -3.3995 H       1  LIG1        0.0830
     11 N           0.4724    6.8123    0.5795 N.am    1  LIG1       -0.2814
     12 C          -0.0864    5.9066    1.4378 C.2     1  LIG1        0.2483
     13 O          -1.2015    5.4559    1.2740 O.2     1  LIG1       -0.2699
     14 C           0.7220    5.4931    2.6165 C.ar    1  LIG1        0.0377
     15 C           0.4414    4.2597    3.1921 C.ar    1  LIG1       -0.0496
     16 H          -0.2032    3.7076    2.8127 H       1  LIG1        0.0625
     17 C           1.1142    3.8527    4.3195 C.ar    1  LIG1       -0.0603
     18 H           0.9234    3.0256    4.6998 H       1  LIG1        0.0618
     19 C           2.0689    4.6654    4.8853 C.ar    1  LIG1       -0.0496
     20 H           2.5249    4.3834    5.6454 H       1  LIG1        0.0625
     21 C           2.3561    5.9077    4.3267 C.ar    1  LIG1        0.0377
     22 C           1.6769    6.3116    3.1888 C.ar    1  LIG1       -0.0375
     23 H           1.8647    7.1385    2.8074 H       1  LIG1        0.0633
     24 C           3.4251    6.7231    4.9740 C.2     1  LIG1        0.2483
     25 O           4.2799    6.1840    5.6563 O.2     1  LIG1       -0.2699
     26 N           3.3885    8.0737    4.7541 N.am    1  LIG1       -0.2814
     27 C           4.2903    9.0280    5.2450 C.ar    1  LIG1        0.0365
     28 C           5.3598    8.7434    6.0718 C.ar    1  LIG1       -0.0223
     29 H           5.5201    7.8735    6.3589 H       1  LIG1        0.0651
     30 C           6.1828    9.7741    6.4619 C.ar    1  LIG1        0.0293
     31 H           6.8911    9.5593    7.0244 H       1  LIG1        0.0830
     32 N           6.0567   11.0433    6.1076 N.ar    1  LIG1       -0.2631
     33 C           5.0011   11.3035    5.3376 C.ar    1  LIG1        0.0293
     34 H           4.8564   12.1868    5.0852 H       1  LIG1        0.0830
     35 C           4.1150   10.3606    4.8916 C.ar    1  LIG1       -0.0223
     36 H           3.3977   10.6107    4.3544 H       1  LIG1        0.0651
     37 H           1.3414    6.8923    0.6308 H       1  LIG1        0.1551
     38 H           2.7022    8.4010    4.2837 H       1  LIG1        0.1551
@<TRIPOS>BOND
     1    10     9    1
     2     1     9   ar
     3     1     2   ar
     4     9     7   ar
     5     3     2    1
     6     2     4   ar
     7     7     8    1
     8     7     6   ar
     9     4     6   ar
    10     4     5    1
    11     6    11    1
    12    11    37    1
    13    11    12   am
    14    13    12    2
    15    12    14    1
    16    14    22   ar
    17    14    15   ar
    18    23    22    1
    19    16    15    1
    20    22    21   ar
    21    15    17   ar
    22    38    26    1
    23    17    18    1
    24    17    19   ar
    25    21    19   ar
    26    21    24    1
    27    36    35    1
    28    26    24   am
    29    26    27    1
    30    19    20    1
    31    35    27   ar
    32    35    33   ar
    33    24    25    2
    34    34    33    1
    35    27    28   ar
    36    33    32   ar
    37    28    29    1
    38    28    30   ar
    39    32    30   ar
    40    30    31    1
