@<TRIPOS>MOLECULE
?
 60 61 0 0 0
SMALL
GASTEIGER

@<TRIPOS>ATOM
      1 S           1.5890    5.1582    4.2862 S.3     1  LIG1       -0.1232
      2 O           0.4544   12.1647    1.6626 O.co2   2  LIG2       -0.2331
      3 O           0.6501   10.6128    4.8303 O.co2   2  LIG2       -0.2331
      4 O          -1.1280   11.9190    3.2376 O.co2   2  LIG2       -0.2331
      5 O           2.1199   10.6247    3.1346 O.co2   2  LIG2       -0.2331
      6 O           0.6260    7.5830    3.9379 O.3     1  LIG1       -0.3417
      7 N           1.7526    9.4710   -0.0857 N.am    1  LIG1       -0.1588
      8 H           2.3531    9.8163   -0.5962 H       1  LIG1        0.3027
      9 O          -1.3940    5.6074    3.1938 O.3     1  LIG1       -0.3916
     10 H          -1.4590    4.7899    3.1621 H       1  LIG1        0.2095
     11 N           1.1642    8.1329    1.7327 N.am    1  LIG1       -0.2298
     12 C           2.1728    8.6298    0.9313 C.2     1  LIG1        0.3968
     13 O           3.3470    8.3604    1.0932 O.2     1  LIG1       -0.2235
     14 C           0.0335   11.7436    2.7701 C.2     2  LIG2        0.4661
     15 C           1.0201   10.9206    3.6564 C.2     2  LIG2        0.4661
     16 C          -0.5382    9.1961    0.4890 C.2     1  LIG1        0.0233
     17 H          -1.4389    9.3724    0.3434 H       1  LIG1        0.0669
     18 C           1.7673    5.9015    2.6618 C.3     1  LIG1        0.0395
     19 H           2.6400    5.7097    2.2829 H       1  LIG1        0.0419
     20 H           1.0817    5.5818    2.0527 H       1  LIG1        0.0419
     21 N           0.1555   10.6073   -1.3237 N.pl3   1  LIG1       -0.2514
     22 H           0.7848   10.9371   -1.8075 H       1  LIG1        0.2881
     23 H          -0.6642   10.8119   -1.4867 H       1  LIG1        0.2881
     24 C          -0.1635    8.3768    1.4829 C.3     1  LIG1        0.0802
     25 H          -0.8123    7.9676    2.0112 H       1  LIG1        0.0571
     26 C           0.4477    9.7889   -0.3332 C.2     1  LIG1        0.2593
     27 C           0.3411    6.4203    4.7243 C.3     1  LIG1        0.1295
     28 H           0.4611    6.6541    5.6676 H       1  LIG1        0.0736
     29 C           1.6065    7.3794    2.9334 C.3     1  LIG1        0.1414
     30 H           2.4617    7.7438    3.2414 H       1  LIG1        0.0820
     31 C          -1.1045    6.0047    4.5186 C.3     1  LIG1        0.0798
     32 H          -1.3069    5.2694    5.1167 H       1  LIG1        0.0592
     33 H          -1.6816    6.7464    4.7583 H       1  LIG1        0.0592
     34 S           2.1194    5.0780    7.7921 S.3     3  LIG3       -0.1232
     35 O           2.5763    2.6169    8.5735 O.3     3  LIG3       -0.3417
     36 O           5.5312    4.0190   10.9617 O.2     3  LIG3       -0.2235
     37 N           3.3021    3.7659   10.5108 N.am    3  LIG3       -0.2298
     38 N           4.0340    4.6456   12.5601 N.am    3  LIG3       -0.1588
     39 H           4.6734    4.8291   13.1050 H       3  LIG3        0.3027
     40 O          -0.4068    3.3613    6.5725 O.3     3  LIG3       -0.3916
     41 H          -0.1099    3.0544    5.8714 H       3  LIG3        0.2095
     42 C           1.8176    3.3074    7.5457 C.3     3  LIG3        0.1295
     43 H           2.1587    3.0444    6.6638 H       3  LIG3        0.0736
     44 C           0.3679    2.8964    7.6547 C.3     3  LIG3        0.0798
     45 H           0.3143    1.9282    7.6902 H       3  LIG3        0.0592
     46 H          -0.0000    3.2453    8.4826 H       3  LIG3        0.0592
     47 N           2.5381    5.4411   14.1310 N.pl3   3  LIG3       -0.2514
     48 H           3.1996    5.6667   14.6332 H       3  LIG3        0.2881
     49 H           1.7318    5.5864   14.3917 H       3  LIG3        0.2881
     50 C           2.7579    4.8776   12.9767 C.2     3  LIG3        0.2593
     51 C           4.3704    4.1350   11.3210 C.2     3  LIG3        0.3968
     52 C           1.9885    3.9331   10.9274 C.3     3  LIG3        0.0802
     53 H           1.2982    3.6691   10.3618 H       3  LIG3        0.0571
     54 C           1.6849    4.4638   12.1217 C.2     3  LIG3        0.0233
     55 H           0.7996    4.5615   12.3881 H       3  LIG3        0.0669
     56 C           3.6399    3.3860    9.1052 C.3     3  LIG3        0.1414
     57 H           4.4629    2.8535    9.0977 H       3  LIG3        0.0820
     58 C           3.8262    4.6273    8.2230 C.3     3  LIG3        0.0395
     59 H           4.3450    4.4190    7.4298 H       3  LIG3        0.0419
     60 H           4.2652    5.3416    8.7128 H       3  LIG3        0.0419
@<TRIPOS>BOND
     1    22    21    1
     2    23    21    1
     3    21    26    1
     4     8     7    1
     5    26     7    1
     6    26    16    2
     7     7    12   am
     8    17    16    1
     9    16    24    1
    10    12    13    2
    11    12    11   am
    12    24    11    1
    13    24    25    1
    14     2    14   ar
    15    11    29    1
    16    20    18    1
    17    19    18    1
    18    18    29    1
    19    18     1    1
    20    14     4   ar
    21    14    15    1
    22    29    30    1
    23    29     6    1
    24     5    15   ar
    25    10     9    1
    26     9    31    1
    27    15     3   ar
    28     6    27    1
    29     1    27    1
    30    31    27    1
    31    31    33    1
    32    31    32    1
    33    27    28    1
    34    41    40    1
    35    40    44    1
    36    43    42    1
    37    59    58    1
    38    42    44    1
    39    42    34    1
    40    42    35    1
    41    44    45    1
    42    44    46    1
    43    34    58    1
    44    58    60    1
    45    58    56    1
    46    35    56    1
    47    57    56    1
    48    56    37    1
    49    53    52    1
    50    37    52    1
    51    37    51   am
    52    52    54    1
    53    36    51    2
    54    51    38   am
    55    54    55    1
    56    54    50    2
    57    38    50    1
    58    38    39    1
    59    50    47    1
    60    47    49    1
    61    47    48    1
