@<TRIPOS>MOLECULE
C11 H10 Cl N5
 27 28 0 0 0
SMALL
GASTEIGER

@<TRIPOS>ATOM
      1 CL          2.4502    1.2234   12.4830 Cl      1  LIG1       -0.0835
      2 N           0.5637    3.5050   16.5933 N.ar    1  LIG1       -0.2548
      3 N           4.3394    3.8481   18.4548 N.pl3   1  LIG1       -0.3413
      4 H           5.0775    3.6057   18.0410 H       1  LIG1        0.1461
      5 N           4.9842    2.6472   21.1084 N.2     1  LIG1        0.1222
      6 N           5.5307    2.5331   22.2106 N.2     1  LIG1        0.2544
      7 N           6.0904    2.3238   23.1720 N.2     1  LIG1        0.3543
      8 C           0.7424    4.0731   17.7776 C.ar    1  LIG1        0.0300
      9 H          -0.0313    4.4076   18.2152 H       1  LIG1        0.0830
     10 C           1.9569    4.2266   18.4390 C.ar    1  LIG1       -0.0221
     11 H           1.9877    4.6657   19.2810 H       1  LIG1        0.0651
     12 C           3.1309    3.7356   17.8645 C.ar    1  LIG1        0.0379
     13 C           2.9917    3.0895   16.5772 C.ar    1  LIG1        0.0213
     14 C           4.0925    2.5638   15.8626 C.ar    1  LIG1       -0.0494
     15 H           4.9588    2.5961   16.2511 H       1  LIG1        0.0625
     16 C           3.9350    2.0067   14.6174 C.ar    1  LIG1       -0.0426
     17 H           4.6823    1.6651   14.1423 H       1  LIG1        0.0632
     18 C           2.6435    1.9532   14.0599 C.ar    1  LIG1        0.0430
     19 C           1.5522    2.4458   14.7066 C.ar    1  LIG1       -0.0173
     20 H           0.6952    2.4025   14.2984 H       1  LIG1        0.0653
     21 C           1.7002    3.0242   15.9925 C.ar    1  LIG1        0.0741
     22 C           4.5529    4.6059   19.6788 C.3     1  LIG1        0.0354
     23 H           4.0341    5.4479   19.6249 H       1  LIG1        0.0481
     24 H           5.5105    4.8475   19.7381 H       1  LIG1        0.0481
     25 C           4.1558    3.8701   20.9486 C.3     1  LIG1        0.1378
     26 H           4.2832    4.4635   21.7315 H       1  LIG1        0.0595
     27 H           3.1993    3.6207   20.9034 H       1  LIG1        0.0595
@<TRIPOS>BOND
     1     1    18    1
     2    18    16   ar
     3    18    19   ar
     4    17    16    1
     5    20    19    1
     6    16    14   ar
     7    19    21   ar
     8    14    15    1
     9    14    13   ar
    10    21    13   ar
    11    21     2   ar
    12    13    12   ar
    13     2     8   ar
    14     8     9    1
    15     8    10   ar
    16    12    10   ar
    17    12     3    1
    18     4     3    1
    19    10    11    1
    20     3    22    1
    21    23    22    1
    22    22    24    1
    23    22    25    1
    24    27    25    1
    25    25     5    1
    26    25    26    1
    27     5     6    2
    28     6     7    2
