@<TRIPOS>MOLECULE
4-hydroxy-3[1-(3,4,5-trimethoxy-benzylimino)-ethyl]chromen-2-one
 49 51 0 0 0
SMALL
GASTEIGER

@<TRIPOS>ATOM
      1 O           3.2634   -2.6719   13.3652 O.3     1  LIG1       -0.4240
      2 O           2.0154   -1.9261   14.9890 O.2     1  LIG1       -0.2486
      3 O           1.8917    0.1074   10.7005 O.2     1  LIG1       -0.2901
      4 O           1.6501    6.1901   10.3712 O.3     1  LIG1       -0.4913
      5 O           0.3293    5.4933    8.1686 O.3     1  LIG1       -0.4885
      6 O          -1.4629    3.5156    8.1817 O.3     1  LIG1       -0.4913
      7 N           0.5153    1.1620   12.5446 N.2     1  LIG1       -0.2430
      8 C           2.3195   -1.7674   13.8294 C.2     1  LIG1        0.3384
      9 C           1.8291   -0.7552   12.9118 C.3     1  LIG1        0.2405
     10 C           2.2785   -0.7330   11.5492 C.2     1  LIG1        0.1955
     11 C           3.7246   -1.8310    9.8253 C.ar    1  LIG1       -0.0477
     12 H           3.4056   -1.2195    9.1721 H       1  LIG1        0.0626
     13 C           4.6586   -2.7842    9.4707 C.ar    1  LIG1       -0.0609
     14 H           4.9753   -2.8311    8.5765 H       1  LIG1        0.0618
     15 C           5.1348   -3.6763   10.4260 C.ar    1  LIG1       -0.0582
     16 H           5.7809   -4.3287   10.1826 H       1  LIG1        0.0619
     17 C           4.6715   -3.6181   11.7295 C.ar    1  LIG1       -0.0185
     18 H           5.0036   -4.2185   12.3859 H       1  LIG1        0.0654
     19 C           3.7169   -2.6706   12.0628 C.ar    1  LIG1        0.1422
     20 C           3.2421   -1.7578   11.1398 C.ar    1  LIG1        0.0614
     21 C           0.9123    0.2426   13.3935 C.2     1  LIG1        0.1775
     22 C          -0.3088    2.3640   12.8304 C.3     1  LIG1        0.1685
     23 H           0.0326    2.8311   13.6332 H       1  LIG1        0.1079
     24 H          -1.2499    2.1047   12.9934 H       1  LIG1        0.1079
     25 C          -0.2163    3.2628   11.6252 C.ar    1  LIG1        0.0238
     26 C           0.6847    4.3264   11.6333 C.ar    1  LIG1       -0.0069
     27 H           1.1969    4.5227   12.4095 H       1  LIG1        0.0660
     28 C           0.8198    5.1008   10.4724 C.ar    1  LIG1        0.1656
     29 C           0.0989    4.7967    9.3303 C.ar    1  LIG1        0.2035
     30 C          -0.8021    3.7290    9.3526 C.ar    1  LIG1        0.1656
     31 C          -0.9654    2.9663   10.5046 C.ar    1  LIG1       -0.0069
     32 H          -1.5867    2.2476   10.5194 H       1  LIG1        0.0660
     33 C           2.4160    6.5179   11.5255 C.3     1  LIG1        0.0790
     34 H           1.8128    6.7284   12.2683 H       1  LIG1        0.0660
     35 H           2.9808    7.2949   11.3328 H       1  LIG1        0.0660
     36 H           2.9816    5.7554   11.7696 H       1  LIG1        0.0660
     37 C          -0.6811    6.4652    7.8697 C.3     1  LIG1        0.0791
     38 H          -1.5658    6.0504    7.9440 H       1  LIG1        0.0660
     39 H          -0.5525    6.7992    6.9571 H       1  LIG1        0.0660
     40 H          -0.6150    7.2096    8.5029 H       1  LIG1        0.0660
     41 C          -2.3192    2.3782    8.1045 C.3     1  LIG1        0.0790
     42 H          -1.7938    1.5631    8.2499 H       1  LIG1        0.0660
     43 H          -2.7373    2.3433    7.2189 H       1  LIG1        0.0660
     44 H          -3.0143    2.4456    8.7912 H       1  LIG1        0.0660
     45 C           0.3902    0.3089   14.7834 C.3     1  LIG1        0.0176
     46 H          -0.4066    0.8799   14.8055 H       1  LIG1        0.0333
     47 H           1.0772    0.6832   15.3732 H       1  LIG1        0.0333
     48 H           0.1551   -0.5927   15.0879 H       1  LIG1        0.0333
     49 H           0.9109    1.0661   11.6387 H       1  LIG1        0.4453
@<TRIPOS>BOND
     1    39    37    1
     2    43    41    1
     3    37    38    1
     4    37     5    1
     5    37    40    1
     6    41     6    1
     7    41    42    1
     8    41    44    1
     9     5    29    1
    10     6    30    1
    11    14    13    1
    12    12    11    1
    13    29    30   ar
    14    29    28   ar
    15    30    31   ar
    16    13    11   ar
    17    13    15   ar
    18    11    20   ar
    19    16    15    1
    20     4    28    1
    21     4    33    1
    22    15    17   ar
    23    28    26   ar
    24    31    32    1
    25    31    25   ar
    26     3    10    2
    27    20    10    1
    28    20    19   ar
    29    35    33    1
    30    33    36    1
    31    33    34    1
    32    10     9    1
    33    25    26   ar
    34    25    22    1
    35    26    27    1
    36    49     7    1
    37    17    19   ar
    38    17    18    1
    39    19     1    1
    40     7    22    1
    41     7    21    2
    42    22    24    1
    43    22    23    1
    44     9    21    1
    45     9     8    1
    46     1     8    1
    47    21    45    1
    48     8     2    2
    49    45    46    1
    50    45    48    1
    51    45    47    1
