@<TRIPOS>MOLECULE
?
 50 52 0 0 0
SMALL
GASTEIGER

@<TRIPOS>ATOM
      1 C           3.0659    5.6488    4.4735 C.2     1  LIG1        0.2483
      2 O           1.9201    5.2556    4.6813 O.2     1  LIG1       -0.2699
      3 N           4.1549    4.8529    4.6509 N.am    1  LIG1       -0.2802
      4 H           4.9447    5.2051    4.4919 H       1  LIG1        0.1552
      5 C           4.1184    3.5013    5.0720 C.ar    1  LIG1        0.0519
      6 C           3.1226    2.6186    4.6773 C.ar    1  LIG1        0.0487
      7 H           2.4245    2.9502    4.1251 H       1  LIG1        0.0848
      8 N           3.0894    1.3392    5.0273 N.ar    1  LIG1       -0.2614
      9 C           4.0919    0.8988    5.8240 C.ar    1  LIG1        0.0277
     10 H           4.0822   -0.0114    6.1005 H       1  LIG1        0.0829
     11 C           5.1153    1.6946    6.2492 C.ar    1  LIG1       -0.0418
     12 H           5.8034    1.3379    6.7990 H       1  LIG1        0.0633
     13 C           5.1403    3.0119    5.8736 C.ar    1  LIG1       -0.0376
     14 H           5.8460    3.5791    6.1573 H       1  LIG1        0.0637
     15 C           3.3354    7.0484    4.0476 C.ar    1  LIG1        0.0370
     16 C           4.4289    7.4234    3.2628 C.ar    1  LIG1       -0.0496
     17 H           5.0678    6.7717    2.9999 H       1  LIG1        0.0625
     18 C           4.5871    8.7384    2.8673 C.ar    1  LIG1       -0.0610
     19 H           5.3290    8.9786    2.3247 H       1  LIG1        0.0618
     20 C           3.6861    9.6990    3.2484 C.ar    1  LIG1       -0.0617
     21 H           3.8099   10.6023    2.9799 H       1  LIG1        0.0618
     22 C           2.5906    9.3468    4.0300 C.ar    1  LIG1       -0.0610
     23 H           1.9657   10.0077    4.3009 H       1  LIG1        0.0618
     24 C           2.4157    8.0341    4.4096 C.ar    1  LIG1       -0.0496
     25 H           1.6552    7.7939    4.9266 H       1  LIG1        0.0625
     26 C           0.5283    5.6831    0.3572 C.2     2  LIG2        0.2483
     27 O          -0.6326    5.2554    0.4092 O.2     2  LIG2       -0.2699
     28 N           1.5981    4.9085    0.6553 N.am    2  LIG2       -0.2802
     29 H           2.3970    5.2691    0.5786 H       2  LIG2        0.1552
     30 C           1.5258    3.5608    1.0820 C.ar    2  LIG2        0.0519
     31 C           2.5557    2.7009    0.6920 C.ar    2  LIG2        0.0487
     32 H           3.2492    3.0394    0.1390 H       2  LIG2        0.0848
     33 N           2.6037    1.4248    1.0660 N.ar    2  LIG2       -0.2614
     34 C           1.6328    0.9720    1.8404 C.ar    2  LIG2        0.0277
     35 H           1.6703    0.0663    2.1249 H       2  LIG2        0.0829
     36 C           0.5659    1.7449    2.2575 C.ar    2  LIG2       -0.0418
     37 H          -0.1228    1.3676    2.7921 H       2  LIG2        0.0633
     38 C           0.5156    3.0668    1.8883 C.ar    2  LIG2       -0.0376
     39 H          -0.1941    3.6271    2.1792 H       2  LIG2        0.0637
     40 C           0.8043    7.0941   -0.0408 C.ar    2  LIG2        0.0370
     41 C           1.9020    7.8259    0.4139 C.ar    2  LIG2       -0.0496
     42 H           2.5613    7.4029    0.9502 H       2  LIG2        0.0625
     43 C           2.0384    9.1592    0.0935 C.ar    2  LIG2       -0.0610
     44 H           2.7778    9.6532    0.4243 H       2  LIG2        0.0618
     45 C           1.0886    9.7790   -0.7192 C.ar    2  LIG2       -0.0617
     46 H           1.1788   10.6961   -0.9470 H       2  LIG2        0.0618
     47 C           0.0122    9.0449   -1.1907 C.ar    2  LIG2       -0.0610
     48 H          -0.6285    9.4565   -1.7589 H       2  LIG2        0.0618
     49 C          -0.1319    7.7322   -0.8423 C.ar    2  LIG2       -0.0496
     50 H          -0.8867    7.2473   -1.1539 H       2  LIG2        0.0625
@<TRIPOS>BOND
     1    48    47    1
     2    47    49   ar
     3    47    45   ar
     4    50    49    1
     5    46    45    1
     6    49    40   ar
     7    45    43   ar
     8    40    26    1
     9    40    41   ar
    10    43    41   ar
    11    43    44    1
    12    32    31    1
    13    26    27    2
    14    26    28   am
    15    41    42    1
    16    29    28    1
    17    28    30    1
    18    31    33   ar
    19    31    30   ar
    20    33    34   ar
    21    30    38   ar
    22    34    35    1
    23    34    36   ar
    24    38    39    1
    25    38    36   ar
    26    36    37    1
    27    19    18    1
    28    18    20   ar
    29    18    16   ar
    30    21    20    1
    31    17    16    1
    32    20    22   ar
    33    16    15   ar
    34    22    23    1
    35    22    24   ar
    36    15    24   ar
    37    15     1    1
    38     7     6    1
    39    24    25    1
    40     1     3   am
    41     1     2    2
    42     4     3    1
    43     3     5    1
    44     6     8   ar
    45     6     5   ar
    46     8     9   ar
    47     5    13   ar
    48     9    10    1
    49     9    11   ar
    50    13    14    1
    51    13    11   ar
    52    11    12    1
