@<TRIPOS>MOLECULE
?
 36 36 0 0 0
SMALL
GASTEIGER

@<TRIPOS>ATOM
      1 I           1.4264    4.2079    2.5976 I       1  LIG1       -0.0438
      2 C          -1.9980    1.5980    2.1317 C.ar    1  LIG1        0.0047
      3 H          -2.3055    0.8158    2.5286 H       1  LIG1        0.0681
      4 C          -1.0922    3.9355    0.9225 C.ar    1  LIG1       -0.0397
      5 H          -0.7757    4.7125    0.5215 H       1  LIG1        0.0633
      6 C          -3.1569    4.0912   -0.5208 C.3     1  LIG1       -0.0337
      7 H          -3.5078    3.4381   -1.1307 H       1  LIG1        0.0280
      8 H          -2.6124    4.7189   -1.0023 H       1  LIG1        0.0280
      9 H          -3.8826    4.5556   -0.0979 H       1  LIG1        0.0280
     10 C          -2.3212    3.4016    0.5278 C.ar    1  LIG1        0.0155
     11 C          -2.7655    2.2425    1.1717 C.ar    1  LIG1        0.1446
     12 C          -0.3409    3.3125    1.9094 C.ar    1  LIG1        0.0140
     13 C          -0.7667    2.1301    2.4957 C.ar    1  LIG1       -0.0426
     14 H          -0.2346    1.6982    3.1251 H       1  LIG1        0.0630
     15 N          -4.1024    1.7335    0.8739 N.pl3   1  LIG1       -0.4111
     16 N          -0.9073    0.5888    5.6380 N.pl3   2  LIG2        0.0565
     17 O           1.6418    0.9505   11.1152 O.co2   2  LIG2       -0.2406
     18 C           1.0774    1.4996   10.1168 C.2     2  LIG2        0.3867
     19 O          -1.3881    1.7138    5.6739 O.2     2  LIG2       -0.1261
     20 O          -1.1253   -0.2368    4.7569 O.2     2  LIG2       -0.1261
     21 O           0.5967    2.6483   10.0775 O.co2   2  LIG2       -0.2406
     22 C           1.6729   -1.2338    7.5680 C.ar    2  LIG2        0.1291
     23 C           0.7868   -0.9247    6.5456 C.ar    2  LIG2       -0.0012
     24 H           0.7137   -1.4527    5.7834 H       2  LIG2        0.0663
     25 C           0.9774    0.6543    8.8587 C.ar    2  LIG2        0.0675
     26 C           0.0972    1.0156    7.8451 C.ar    2  LIG2       -0.0172
     27 H          -0.4269    1.7804    7.9215 H       2  LIG2        0.0648
     28 C           1.7823   -0.4748    8.7226 C.ar    2  LIG2       -0.0172
     29 H           2.3806   -0.7145    9.3930 H       2  LIG2        0.0648
     30 C           0.0179    0.2142    6.7222 C.ar    2  LIG2        0.1291
     31 O           2.3569   -3.1173    6.4206 O.2     2  LIG2       -0.1261
     32 O           3.3440   -2.6495    8.2880 O.2     2  LIG2       -0.1261
     33 N           2.5239   -2.4202    7.4100 N.pl3   2  LIG2        0.0565
     34 H          -4.2772    1.5633   -0.0114 H       1  LIG1        0.3712
     35 H          -4.2418    1.0654    1.2808 H       1  LIG1        0.3712
     36 H          -4.7158    2.3507    1.1829 H       1  LIG1        0.3712
@<TRIPOS>BOND
     1     7     6    1
     2     8     6    1
     3     6     9    1
     4     6    10    1
     5    34    15    1
     6     5     4    1
     7    10     4   ar
     8    10    11   ar
     9    15    11    1
    10    15    36    1
    11    15    35    1
    12     4    12   ar
    13    11     2   ar
    14    12    13   ar
    15    12     1    1
    16     2    13   ar
    17     2     3    1
    18    13    14    1
    19    20    16    2
    20    16    19    2
    21    16    30    1
    22    24    23    1
    23    31    33    2
    24    23    30   ar
    25    23    22   ar
    26    30    26   ar
    27    33    22    1
    28    33    32    2
    29    22    28   ar
    30    26    27    1
    31    26    25   ar
    32    28    25   ar
    33    28    29    1
    34    25    18    1
    35    21    18   ar
    36    18    17   ar
