@<TRIPOS>MOLECULE
?
 21 19 0 0 0
SMALL
GASTEIGER

@<TRIPOS>ATOM
      1 N           2.6025    1.5770    0.3440 N.2     1  LIG1       -0.2926
      2 N           4.0128    1.3002    2.1172 N.pl3   1  LIG1       -0.2539
      3 C           2.8335    1.5678    1.6336 C.2     1  LIG1        0.2340
      4 C           1.7296    1.9497    2.5739 C.3     1  LIG1        0.0459
      5 H           1.8495    1.4834    3.4386 H       1  LIG1        0.0385
      6 H           0.8567    1.6777    2.1941 H       1  LIG1        0.0385
      7 C           1.7487    3.4735    2.7971 C.3     1  LIG1       -0.0451
      8 H           2.6380    3.7355    3.1431 H       1  LIG1        0.0268
      9 H           1.6180    3.9264    1.9270 H       1  LIG1        0.0268
     10 C           0.6930    3.9457    3.7562 C.3     1  LIG1       -0.0647
     11 H          -0.1934    3.7390    3.3940 H       1  LIG1        0.0230
     12 H           0.7763    4.9141    3.8837 H       1  LIG1        0.0230
     13 H           0.8082    3.4921    4.6176 H       1  LIG1        0.0230
     14 N           0.5486   -1.3235    1.2053 N.pl3   2  LIG2        0.2601
     15 O           0.3491   -1.5867    0.0013 O.2     2  LIG2       -0.0867
     16 O           1.7203   -1.3091    1.6572 O.2     2  LIG2       -0.0867
     17 O          -0.4021   -1.0721    1.9607 O.2     2  LIG2       -0.0867
     18 H           3.2288    1.4518   -0.2226 H       1  LIG1        0.3005
     19 H           1.7689    1.6585    0.0674 H       1  LIG1        0.3005
     20 H           4.1296    1.2855    2.9813 H       1  LIG1        0.2880
     21 H           4.6730    1.1489    1.5918 H       1  LIG1        0.2880
@<TRIPOS>BOND
     1    18     1    1
     2    15    14    2
     3    19     1    1
     4     1     3    2
     5    14    16    2
     6    14    17    1
     7    21     2    1
     8     3     2    1
     9     3     4    1
    10     9     7    1
    11     2    20    1
    12     6     4    1
    13     4     7    1
    14     4     5    1
    15     7     8    1
    16     7    10    1
    17    11    10    1
    18    10    12    1
    19    10    13    1
