@<TRIPOS>MOLECULE
C6 H3 N3 O2 S
 15 16 0 0 0
SMALL
GASTEIGER

@<TRIPOS>ATOM
      1 O           1.4016    7.9198   -1.0770 O.2     1  LIG1       -0.1261
      2 N           1.7926    4.9456    2.9228 N.ar    1  LIG1       -0.1907
      3 S           0.8056    4.5937    1.6978 S.2     1  LIG1        0.1165
      4 O           3.1573    9.1749   -0.9574 O.2     1  LIG1       -0.1261
      5 N           1.1176    5.8158    0.6808 N.ar    1  LIG1       -0.1885
      6 N           2.4015    8.3195   -0.4982 N.pl3   1  LIG1        0.0586
      7 C           2.7052    7.7540    0.8155 C.ar    1  LIG1        0.1542
      8 C           3.6588    8.3670    1.5833 C.ar    1  LIG1       -0.0292
      9 H           4.0923    9.1455    1.2550 H       1  LIG1        0.0641
     10 C           4.0113    7.8585    2.8633 C.ar    1  LIG1       -0.0574
     11 H           4.6733    8.3074    3.3767 H       1  LIG1        0.0619
     12 C           3.4178    6.7377    3.3709 C.ar    1  LIG1       -0.0334
     13 H           3.6579    6.4046    4.2271 H       1  LIG1        0.0640
     14 C           2.0455    6.5798    1.2877 C.ar    1  LIG1        0.1299
     15 C           2.4333    6.0828    2.5845 C.ar    1  LIG1        0.1021
@<TRIPOS>BOND
     1     1     6    2
     2     4     6    2
     3     6     7    1
     4     5    14   ar
     5     5     3   ar
     6     7    14   ar
     7     7     8   ar
     8     9     8    1
     9    14    15   ar
    10     8    10   ar
    11     3     2   ar
    12    15     2   ar
    13    15    12   ar
    14    10    12   ar
    15    10    11    1
    16    12    13    1
