@<TRIPOS>MOLECULE
?
 82 88 0 0 0
SMALL
GASTEIGER

@<TRIPOS>ATOM
      1 O           0.2132    7.2999    2.3083 O.3     1  LIG1       -0.3480
      2 O          -0.3379   13.5273   -0.9851 O.3     1  LIG1       -0.3480
      3 O           1.7282   13.4626   -2.0886 O.3     1  LIG1       -0.3480
      4 O           2.2407    7.3082    1.1533 O.3     1  LIG1       -0.3480
      5 C           0.7885    5.3375    0.9513 C.3     1  LIG1        0.0020
      6 H           0.3661    5.7028    0.1583 H       1  LIG1        0.0317
      7 H           0.1222    4.8229    1.4367 H       1  LIG1        0.0317
      8 C           1.9280    4.4145    0.5363 C.3     1  LIG1       -0.0413
      9 H           1.5692    3.6856    0.0105 H       1  LIG1        0.0273
     10 H           2.5487    4.9059   -0.0238 H       1  LIG1        0.0273
     11 C           2.6762    3.8492    1.7311 C.3     1  LIG1       -0.0155
     12 H           2.0267    3.3287    2.2513 H       1  LIG1        0.0349
     13 C           3.1497    5.0022    2.6343 C.3     1  LIG1       -0.0413
     14 H           3.5607    4.6320    3.4329 H       1  LIG1        0.0273
     15 H           3.8199    5.5202    2.1650 H       1  LIG1        0.0273
     16 C           2.0029    5.9062    3.0328 C.3     1  LIG1        0.0020
     17 H           2.3441    6.6325    3.5751 H       1  LIG1        0.0317
     18 H           1.3719    5.4040    3.5713 H       1  LIG1        0.0317
     19 C           1.2850    6.4764    1.8263 C.3     1  LIG1        0.1700
     20 C          -0.4206    8.0951    1.2911 C.3     1  LIG1        0.0586
     21 H          -1.1107    8.6413    1.6974 H       1  LIG1        0.0567
     22 H          -0.8458    7.5124    0.6458 H       1  LIG1        0.0567
     23 C           0.5739    8.9933    0.5722 C.3     1  LIG1        0.0177
     24 C           1.0827   10.0675    1.5369 C.3     1  LIG1       -0.0425
     25 H           0.3203   10.5008    1.9536 H       1  LIG1        0.0272
     26 H           1.5975    9.6375    2.2386 H       1  LIG1        0.0272
     27 C           1.9470   11.1300    0.8728 C.3     1  LIG1       -0.0425
     28 H           2.7798   10.7249    0.5888 H       1  LIG1        0.0272
     29 H           2.1610   11.8123    1.5280 H       1  LIG1        0.0272
     30 C           1.2866   11.7982   -0.3381 C.3     1  LIG1        0.0177
     31 C           0.1673   12.7570    0.1135 C.3     1  LIG1        0.0586
     32 H          -0.5571   12.2440    0.5058 H       1  LIG1        0.0567
     33 H           0.5117   13.3563    0.7942 H       1  LIG1        0.0567
     34 C           0.6610   14.2885   -1.6558 C.3     1  LIG1        0.1700
     35 C           1.1410   15.4606   -0.7986 C.3     1  LIG1        0.0020
     36 H           0.3731   15.9711   -0.5014 H       1  LIG1        0.0317
     37 H           1.5921   15.1161   -0.0116 H       1  LIG1        0.0317
     38 C           2.0923   16.3779   -1.5612 C.3     1  LIG1       -0.0413
     39 H           2.8986   15.8881   -1.7876 H       1  LIG1        0.0273
     40 H           2.3445   17.1250   -0.9923 H       1  LIG1        0.0273
     41 C           1.4494   16.9158   -2.8429 C.3     1  LIG1       -0.0155
     42 H           0.6550   17.4238   -2.5723 H       1  LIG1        0.0349
     43 C           0.9612   15.7470   -3.6925 C.3     1  LIG1       -0.0413
     44 H           1.7271   15.2406   -4.0035 H       1  LIG1        0.0273
     45 H           0.4980   16.0956   -4.4711 H       1  LIG1        0.0273
     46 C           0.0206   14.8131   -2.9221 C.3     1  LIG1        0.0020
     47 H          -0.7906   15.2904   -2.6946 H       1  LIG1        0.0317
     48 H          -0.2244   14.0619   -3.4899 H       1  LIG1        0.0317
     49 C           2.3149   12.6964   -1.0388 C.3     1  LIG1        0.0586
     50 H           2.7099   13.2982   -0.3880 H       1  LIG1        0.0567
     51 H           3.0238   12.1444   -1.4046 H       1  LIG1        0.0567
     52 C           0.7617   10.7232   -1.2950 C.3     1  LIG1       -0.0425
     53 H           1.5168   10.2766   -1.7117 H       1  LIG1        0.0272
     54 H           0.2484   11.1565   -1.9973 H       1  LIG1        0.0272
     55 C          -0.1195    9.6673   -0.6121 C.3     1  LIG1       -0.0425
     56 H          -0.9363   10.0857   -0.3027 H       1  LIG1        0.0272
     57 H          -0.3635    8.9900   -1.2624 H       1  LIG1        0.0272
     58 C           1.7090    8.1018    0.0874 C.3     1  LIG1        0.0586
     59 H           1.3820    7.5207   -0.6154 H       1  LIG1        0.0567
     60 H           2.4149    8.6496   -0.2856 H       1  LIG1        0.0567
     61 C           3.8066    2.8995    1.3742 C.ar    1  LIG1       -0.0443
     62 C           4.1186    2.5633    0.0636 C.ar    1  LIG1       -0.0583
     63 H           3.6245    2.9386   -0.6287 H       1  LIG1        0.0620
     64 C           5.1451    1.6851   -0.2424 C.ar    1  LIG1       -0.0615
     65 H           5.3270    1.4776   -1.1295 H       1  LIG1        0.0618
     66 C           5.8916    1.1298    0.7587 C.ar    1  LIG1       -0.0617
     67 H           6.5809    0.5396    0.5534 H       1  LIG1        0.0618
     68 C           5.6226    1.4419    2.0648 C.ar    1  LIG1       -0.0615
     69 H           6.1315    1.0708    2.7472 H       1  LIG1        0.0618
     70 C           4.5848    2.3226    2.3703 C.ar    1  LIG1       -0.0583
     71 H           4.4106    2.5318    3.2602 H       1  LIG1        0.0620
     72 C           2.3331   17.8704   -3.6399 C.ar    1  LIG1       -0.0443
     73 C           3.6267   18.1975   -3.2469 C.ar    1  LIG1       -0.0583
     74 H           3.9826   17.8139   -2.4760 H       1  LIG1        0.0620
     75 C           4.3970   19.0873   -3.9957 C.ar    1  LIG1       -0.0615
     76 H           5.2537   19.3081   -3.7085 H       1  LIG1        0.0618
     77 C           3.9114   19.6368   -5.1397 C.ar    1  LIG1       -0.0617
     78 H           4.4397   20.2129   -5.6427 H       1  LIG1        0.0618
     79 C           2.6257   19.3339   -5.5514 C.ar    1  LIG1       -0.0615
     80 H           2.2816   19.7232   -6.3240 H       1  LIG1        0.0618
     81 C           1.8481   18.4498   -4.8098 C.ar    1  LIG1       -0.0583
     82 H           0.9895   18.2456   -5.1004 H       1  LIG1        0.0620
@<TRIPOS>BOND
     1    80    79    1
     2    78    77    1
     3    79    77   ar
     4    79    81   ar
     5    77    75   ar
     6    82    81    1
     7    81    72   ar
     8    45    43    1
     9    44    43    1
    10    75    76    1
    11    75    73   ar
    12    43    46    1
    13    43    41    1
    14    72    73   ar
    15    72    41    1
    16    48    46    1
    17    73    74    1
    18    46    47    1
    19    46    34    1
    20    41    42    1
    21    41    38    1
    22     3    34    1
    23     3    49    1
    24    54    52    1
    25    39    38    1
    26    53    52    1
    27    34     2    1
    28    34    35    1
    29    38    40    1
    30    38    35    1
    31    51    49    1
    32    52    55    1
    33    52    30    1
    34    57    55    1
    35    65    64    1
    36    49    50    1
    37    49    30    1
    38     2    31    1
    39    35    36    1
    40    35    37    1
    41    63    62    1
    42    59    58    1
    43    55    56    1
    44    55    23    1
    45    30    31    1
    46    30    27    1
    47    60    58    1
    48    64    62   ar
    49    64    66   ar
    50    10     8    1
    51     9     8    1
    52    62    61   ar
    53    58    23    1
    54    58     4    1
    55    31    32    1
    56    31    33    1
    57     6     5    1
    58     8     5    1
    59     8    11    1
    60    67    66    1
    61    23    20    1
    62    23    24    1
    63    28    27    1
    64    22    20    1
    65    66    68   ar
    66    27    29    1
    67    27    24    1
    68     5     7    1
    69     5    19    1
    70     4    19    1
    71    20    21    1
    72    20     1    1
    73    61    11    1
    74    61    70   ar
    75    24    25    1
    76    24    26    1
    77    11    12    1
    78    11    13    1
    79    19     1    1
    80    19    16    1
    81    68    70   ar
    82    68    69    1
    83    15    13    1
    84    70    71    1
    85    13    16    1
    86    13    14    1
    87    16    18    1
    88    16    17    1
