@<TRIPOS>MOLECULE
N-isopropyl-L-valine
 28 27 0 0 0
SMALL
GASTEIGER

@<TRIPOS>ATOM
      1 O           3.0340    0.9592    3.9415 O.co2   1  VAL1       -0.2400
      2 OXT         3.1103    3.0627    4.6991 O.co2   1  VAL1       -0.2400
      3 N           0.3614    1.1129    3.5574 N.4     1  VAL1        0.2392
      4 H1         -0.5364    1.0365    3.7458 H       1  VAL1        0.2025
      5 H2          0.7335    0.2750    3.6306 H       1  VAL1        0.2025
      6 C           2.5164    2.0173    4.3824 C.2     1  VAL1        0.4029
      7 CA          0.9858    2.0026    4.5699 C.3     1  VAL1        0.0828
      8 HA          0.6434    2.9305    4.4260 H       1  VAL1        0.0973
      9 CB          0.5869    1.5563    5.9822 C.3     1  VAL1        0.0070
     10 HB         -0.4051    1.4330    5.9888 H       1  VAL1        0.0356
     11 CG2         0.9190    2.6310    6.9931 C.3     1  VAL1       -0.0570
     12 HG21        0.5394    3.4855    6.6986 H       1  VAL1        0.0234
     13 HG22        1.8923    2.7162    7.0720 H       1  VAL1        0.0234
     14 HG23        0.5406    2.3883    7.8641 H       1  VAL1        0.0234
     15 C           0.0495    0.5002    1.2099 C.3     0  UNK0       -0.0219
     16 H           0.4697   -0.3494    1.4592 H       0  UNK0        0.0284
     17 H           0.2996    0.7312    0.2912 H       0  UNK0        0.0284
     18 H          -0.9248    0.4140    1.2716 H       0  UNK0        0.0284
     19 CG1         1.2131    0.2408    6.3976 C.3     1  VAL1       -0.0570
     20 HG11        1.0335   -0.4375    5.7132 H       1  VAL1        0.0234
     21 HG12        0.8300   -0.0480    7.2522 H       1  VAL1        0.0234
     22 HG13        2.1812    0.3563    6.4963 H       1  VAL1        0.0234
     23 C          -0.2665    2.8512    1.9140 C.3     0  UNK0       -0.0219
     24 H           0.0112    3.5325    2.5613 H       0  UNK0        0.0284
     25 H          -1.2227    2.6672    2.0234 H       0  UNK0        0.0284
     26 H          -0.0984    3.1762    1.0043 H       0  UNK0        0.0284
     27 C           0.5183    1.5866    2.1476 C.3     0  UNK0       -0.0276
     28 H           1.4858    1.7697    1.9732 H       0  UNK0        0.0845
@<TRIPOS>BOND
     1    17    15    1
     2    26    23    1
     3    15    18    1
     4    15    16    1
     5    15    27    1
     6    23    25    1
     7    23    27    1
     8    23    24    1
     9    28    27    1
    10    27     3    1
    11     3     5    1
    12     3     4    1
    13     3     7    1
    14     1     6   ar
    15     6     7    1
    16     6     2   ar
    17     8     7    1
    18     7     9    1
    19    20    19    1
    20     9    10    1
    21     9    19    1
    22     9    11    1
    23    19    22    1
    24    19    21    1
    25    12    11    1
    26    11    13    1
    27    11    14    1
