@<TRIPOS>MOLECULE
?
 66 66 0 0 0
SMALL
GASTEIGER

@<TRIPOS>ATOM
      1 C           1.3249    6.4852    2.9450 C.ar    1  LIG1       -0.0144
      2 C          -1.1867    6.6691    1.5919 C.ar    1  LIG1        0.0594
      3 C          -0.9921    5.6885    2.5390 C.ar    1  LIG1       -0.0400
      4 H          -1.6799    5.0911    2.7250 H       1  LIG1        0.0632
      5 C           0.2511    5.5696    3.2450 C.ar    1  LIG1       -0.0169
      6 C           1.1035    7.4715    1.9273 C.ar    1  LIG1       -0.0531
      7 H           1.7897    8.0552    1.6982 H       1  LIG1        0.0624
      8 C          -0.1061    7.5665    1.2857 C.ar    1  LIG1       -0.0472
      9 H          -0.2284    8.2241    0.6407 H       1  LIG1        0.0626
     10 O          -2.7292    7.7797    0.1423 O.2     1  LIG1       -0.2451
     11 C           0.4563    4.5985    4.2659 C.ar    1  LIG1       -0.0506
     12 H          -0.2208    3.9926    4.4657 H       1  LIG1        0.0625
     13 C           2.5413    6.4053    3.6865 C.ar    1  LIG1       -0.0125
     14 H           3.2386    6.9892    3.4930 H       1  LIG1        0.0660
     15 C           2.6916    5.4732    4.6835 C.ar    1  LIG1        0.1175
     16 O           3.8681    5.4968    5.4137 O.3     1  LIG1       -0.5067
     17 H           3.8513    4.9022    5.9781 H       1  LIG1        0.2921
     18 C           1.6468    4.5447    4.9636 C.ar    1  LIG1       -0.0196
     19 H           1.7685    3.8975    5.6212 H       1  LIG1        0.0654
     20 O          -3.4288    5.9830    1.2859 O.3     1  LIG1       -0.4771
     21 H          -4.1302    6.1421    0.8908 H       1  LIG1        0.2954
     22 C          -2.5146    6.8688    0.9329 C.2     1  LIG1        0.3368
     23 C           5.0217   10.7572    3.3817 C.ar    2  LIG2        0.0594
     24 C           6.3321    9.5089    5.0243 C.ar    2  LIG2       -0.0169
     25 C           5.0985    9.7851    4.3427 C.ar    2  LIG2       -0.0400
     26 H           4.3377    9.2952    4.5578 H       2  LIG2        0.0632
     27 C           8.7303   10.0374    5.3970 C.ar    2  LIG2       -0.0125
     28 H           9.4905   10.5326    5.1926 H       2  LIG2        0.0660
     29 C           7.4975   10.2944    4.6984 C.ar    2  LIG2       -0.0144
     30 C           3.7121   10.9635    2.6477 C.2     2  LIG2        0.3368
     31 O           9.9384    8.8287    7.1031 O.3     2  LIG2       -0.5067
     32 C           8.7864    9.0681    6.3592 C.ar    2  LIG2        0.1175
     33 O           3.7383   12.0130    1.8313 O.3     2  LIG2       -0.4771
     34 H           3.0180   12.0766    1.4452 H       2  LIG2        0.2954
     35 O           2.7355   10.2407    2.7876 O.2     2  LIG2       -0.2451
     36 C           7.3903   11.2897    3.7010 C.ar    2  LIG2       -0.0531
     37 H           8.1355   11.7988    3.4769 H       2  LIG2        0.0624
     38 C           6.1984   11.5147    3.0578 C.ar    2  LIG2       -0.0472
     39 H           6.1521   12.1704    2.4003 H       2  LIG2        0.0626
     40 C           6.4434    8.4786    6.0001 C.ar    2  LIG2       -0.0506
     41 H           5.7055    7.9489    6.2004 H       2  LIG2        0.0625
     42 N           1.2872   12.3903    0.5298 N.2     3  LIG3       -0.2755
     43 C           7.6423    8.2625    6.6495 C.ar    2  LIG2       -0.0196
     44 H           7.7061    7.5848    7.2829 H       2  LIG2        0.0654
     45 C           0.4779   13.4186    0.8993 C.3     3  LIG3        0.1132
     46 C           0.8284   11.4844   -0.3657 C.2     3  LIG3        0.0541
     47 C           1.7917   10.3760   -0.7590 C.3     3  LIG3       -0.0210
     48 H           1.3735    9.8032   -1.4071 H       3  LIG3        0.0293
     49 H           2.0236    9.8632    0.0190 H       3  LIG3        0.0293
     50 H           2.5850   10.7616   -1.1380 H       3  LIG3        0.0293
     51 C           1.0441   14.3949    1.9055 C.3     3  LIG3       -0.0351
     52 H           0.3958   15.0795    2.0858 H       3  LIG3        0.0254
     53 H           1.8417   14.7942    1.5505 H       3  LIG3        0.0254
     54 H           1.2533   13.9309    2.7192 H       3  LIG3        0.0254
     55 N           8.6630    6.2579    0.3903 N.2     4  LIG4       -0.2755
     56 C           7.7701    7.0968    0.9718 C.3     4  LIG4        0.1132
     57 C           8.2321    5.4138   -0.5721 C.2     4  LIG4        0.0541
     58 C           8.3129    8.0141    2.0520 C.3     4  LIG4       -0.0351
     59 H           7.6013    8.5607    2.3945 H       4  LIG4        0.0254
     60 H           8.9970    8.5757    1.6807 H       4  LIG4        0.0254
     61 H           8.6829    7.4859    2.7631 H       4  LIG4        0.0254
     62 C           9.2831    4.5093   -1.1949 C.3     4  LIG4       -0.0210
     63 H           8.8745    3.9588   -1.8664 H       4  LIG4        0.0293
     64 H           9.6679    3.9500   -0.5149 H       4  LIG4        0.0293
     65 H           9.9702    5.0461   -1.5958 H       4  LIG4        0.0293
     66 H          10.3937    9.5341    7.1615 H       2  LIG2        0.2921
@<TRIPOS>BOND
     1    63    62    1
     2    65    62    1
     3    48    47    1
     4    62    57    1
     5    62    64    1
     6    50    47    1
     7    47    46    1
     8    47    49    1
     9    57    55    2
    10    46    42    2
    11    10    22    2
    12    55    56    1
    13    42    45    1
    14     9     8    1
    15    21    20    1
    16    45    51    1
    17    22    20    1
    18    22     2    1
    19    56    58    1
    20     8     2   ar
    21     8     6   ar
    22    34    33    1
    23    53    51    1
    24     2     3   ar
    25    60    58    1
    26     7     6    1
    27    33    30    1
    28    51    52    1
    29    51    54    1
    30     6     1   ar
    31    58    59    1
    32    58    61    1
    33    39    38    1
    34     3     4    1
    35     3     5   ar
    36    30    35    2
    37    30    23    1
    38     1     5   ar
    39     1    13   ar
    40    38    23   ar
    41    38    36   ar
    42     5    11   ar
    43    23    25   ar
    44    37    36    1
    45    14    13    1
    46    13    15   ar
    47    36    29   ar
    48    11    12    1
    49    11    18   ar
    50    25    26    1
    51    25    24   ar
    52    15    18   ar
    53    15    16    1
    54    29    24   ar
    55    29    27   ar
    56    18    19    1
    57    24    40   ar
    58    28    27    1
    59    27    32   ar
    60    16    17    1
    61    40    41    1
    62    40    43   ar
    63    32    43   ar
    64    32    31    1
    65    43    44    1
    66    31    66    1
