@<TRIPOS>MOLECULE
?
 22 20 0 0 0
SMALL
GASTEIGER

@<TRIPOS>ATOM
      1 CL          6.2986    8.7238    5.0941 Cl      1  LIG1        0.0000
      2 CL         -0.2547    6.7131   -1.0215 Cl      2  LIG2        0.0000
      3 N           1.9052    6.4985    1.0539 N.pl3   3  LIG3       -0.3265
      4 H           1.2562    6.4341    0.4915 H       3  LIG3        0.1511
      5 N           3.7086    9.6992    3.8900 N.4     3  LIG3        0.2338
      6 H           2.9629    9.3956    4.1977 H       3  LIG3        0.2019
      7 H           4.3525    9.2949    4.2961 H       3  LIG3        0.2019
      8 C           2.2980    7.7453    1.3370 C.2     3  LIG3       -0.0019
      9 H           1.8445    8.4694    0.9693 H       3  LIG3        0.0783
     10 C           3.3746    7.9598    2.1726 C.2     3  LIG3       -0.0039
     11 C           4.0348    6.8483    2.6779 C.3     3  LIG3        0.0162
     12 H           4.7694    6.9613    3.2373 H       3  LIG3        0.0400
     13 C           3.6082    5.5839    2.3574 C.2     3  LIG3       -0.0620
     14 H           4.0562    4.8398    2.6907 H       3  LIG3        0.0591
     15 C           2.5222    5.4249    1.5444 C.2     3  LIG3       -0.0101
     16 H           2.2151    4.5722    1.3360 H       3  LIG3        0.0778
     17 C           3.7958    9.3729    2.4390 C.3     3  LIG3       -0.0095
     18 H           4.7082    9.4999    2.1352 H       3  LIG3        0.0864
     19 H           3.2264    9.9784    1.9386 H       3  LIG3        0.0864
     20 C           3.8411   11.1502    4.1722 C.3     3  LIG3        0.0077
     21 H           3.1193   11.6359    3.7436 H       3  LIG3        0.0867
     22 H           4.6814   11.4784    3.8143 H       3  LIG3        0.0867
@<TRIPOS>BOND
     1     4     3    1
     2     9     8    1
     3     3     8    1
     4     3    15    1
     5    16    15    1
     6     8    10    2
     7    15    13    2
     8    19    17    1
     9    18    17    1
    10    10    17    1
    11    10    11    1
    12    13    11    1
    13    13    14    1
    14    17     5    1
    15    11    12    1
    16    21    20    1
    17    22    20    1
    18     5    20    1
    19     5     6    1
    20     5     7    1
