@<TRIPOS>MOLECULE
((3-hydroxy-5-(hydroxymethyl)-2-methylpyridin-4-yl) methylene)benzohydrazide
 36 37 0 0 0
SMALL
GASTEIGER

@<TRIPOS>ATOM
      1 C           3.5650   10.6102   -2.8876 C.2     1  LIG1        0.2633
      2 C           5.2560    9.1445   -0.1981 C.2     1  LIG1        0.0567
      3 H           5.0606    8.2497   -0.3552 H       1  LIG1        0.0853
      4 C           6.0536    9.5354    0.9606 C.ar    1  LIG1        0.0445
      5 C           6.4970    8.5742    1.8956 C.ar    1  LIG1        0.0080
      6 C           7.1946    9.0170    2.9968 C.ar    1  LIG1        0.0341
      7 H           7.4855    8.3786    3.6081 H       1  LIG1        0.0833
      8 C           7.0857   11.2159    2.3739 C.ar    1  LIG1        0.0801
      9 C           6.3725   10.8664    1.2176 C.ar    1  LIG1        0.1467
     10 C           7.3983   12.6515    2.6569 C.3     1  LIG1       -0.0188
     11 H           7.8848   12.7165    3.4815 H       1  LIG1        0.0294
     12 H           6.5805   13.1495    2.7270 H       1  LIG1        0.0294
     13 H           7.9298   13.0097    1.9417 H       1  LIG1        0.0294
     14 C           6.2120    7.1076    1.7345 C.3     1  LIG1        0.0714
     15 H           6.5311    6.8218    0.8639 H       1  LIG1        0.0608
     16 H           6.7105    6.6168    2.4062 H       1  LIG1        0.0608
     17 C           2.8027   10.1327   -4.0736 C.ar    1  LIG1        0.0384
     18 C           1.9718   11.0362   -4.7218 C.ar    1  LIG1       -0.0496
     19 H           1.8895   11.9035   -4.3958 H       1  LIG1        0.0625
     20 C           1.2693   10.6564   -5.8430 C.ar    1  LIG1       -0.0610
     21 H           0.7125   11.2669   -6.2687 H       1  LIG1        0.0618
     22 C           1.3860    9.3848   -6.3341 C.ar    1  LIG1       -0.0617
     23 H           0.9055    9.1319   -7.0884 H       1  LIG1        0.0618
     24 C           2.2078    8.4867   -5.7171 C.ar    1  LIG1       -0.0610
     25 H           2.2894    7.6253   -6.0573 H       1  LIG1        0.0618
     26 C           2.9196    8.8505   -4.5895 C.ar    1  LIG1       -0.0496
     27 H           3.4791    8.2334   -4.1759 H       1  LIG1        0.0625
     28 N           4.0798    9.6580   -2.0763 N.am    1  LIG1       -0.2030
     29 H           3.9400    8.8238   -2.2342 H       1  LIG1        0.1776
     30 N           4.8308   10.0492   -0.9941 N.2     1  LIG1       -0.1873
     31 N           7.4862   10.3001    3.2529 N.ar    1  LIG1       -0.2562
     32 O           3.7265   11.8061   -2.6433 O.2     1  LIG1       -0.2685
     33 O           6.0110   11.8818    0.3917 O.3     1  LIG1       -0.5043
     34 H           5.5937   11.5791   -0.2458 H       1  LIG1        0.2922
     35 O           4.8368    6.7725    1.8503 O.3     1  LIG1       -0.3903
     36 H           4.4376    7.3023    2.3694 H       1  LIG1        0.2098
@<TRIPOS>BOND
     1    23    22    1
     2    22    20   ar
     3    22    24   ar
     4    21    20    1
     5    25    24    1
     6    20    18   ar
     7    24    26   ar
     8    18    19    1
     9    18    17   ar
    10    26    27    1
    11    26    17   ar
    12    17     1    1
    13     1    32    2
    14     1    28   am
    15    29    28    1
    16    28    30    1
    17    30     2    2
    18     3     2    1
    19    34    33    1
    20     2     4    1
    21    33     9    1
    22    15    14    1
    23     4     9   ar
    24     4     5   ar
    25     9     8   ar
    26    14    35    1
    27    14     5    1
    28    14    16    1
    29    35    36    1
    30     5     6   ar
    31    13    10    1
    32     8    10    1
    33     8    31   ar
    34    10    12    1
    35    10    11    1
    36     6    31   ar
    37     6     7    1
