@<TRIPOS>MOLECULE
4-iodo-5-methylisoxazol-3-amine
 13 13 0 0 0
SMALL
GASTEIGER

@<TRIPOS>ATOM
      1 I           1.3323    1.2443    5.2180 I       1  LIG1       -0.0366
      2 O           2.6130   -2.7209    5.7868 O.2     1  LIG1       -0.3570
      3 C           2.2305   -0.5644    5.5754 C.ar    1  LIG1        0.0962
      4 N           3.7317   -2.0559    6.3762 N.ar    1  LIG1       -0.0623
      5 N           4.2966    0.1897    6.7146 N.pl3   1  LIG1       -0.3397
      6 H           5.0212   -0.0281    7.1234 H       1  LIG1        0.1438
      7 H           4.0959    1.0197    6.6081 H       1  LIG1        0.1438
      8 C           1.7564   -1.7881    5.3222 C.ar    1  LIG1        0.1492
      9 C           3.4717   -0.7722    6.2397 C.ar    1  LIG1        0.1724
     10 C           0.5236   -2.2831    4.6586 C.3     1  LIG1       -0.0026
     11 H           0.5421   -3.2427    4.6249 H       1  LIG1        0.0309
     12 H           0.4782   -1.9327    3.7661 H       1  LIG1        0.0309
     13 H          -0.2447   -1.9948    5.1548 H       1  LIG1        0.0309
@<TRIPOS>BOND
     1    12    10    1
     2    11    10    1
     3    10    13    1
     4    10     8    1
     5     1     3    1
     6     8     3   ar
     7     8     2   ar
     8     3     9   ar
     9     2     4   ar
    10     9     4   ar
    11     9     5    1
    12     7     5    1
    13     5     6    1
