@<TRIPOS>MOLECULE
2-Hydroxy-2-trifluoromethyl-1,1-dimethyl-1,2-dihydrobenzo[cd]indol-1-ium triflate monohydrate   11-H.triflate.H2O
 43 43 0 0 0
SMALL
GASTEIGER

@<TRIPOS>ATOM
      1 S          -0.5965    2.0640    8.5959 S.3     1  LIG1        0.2092
      2 F           5.0690    3.8422    8.2864 F       2  LIG2       -0.1620
      3 F           3.8380    5.3037    9.2954 F       2  LIG2       -0.1620
      4 F           3.6458    4.9997    7.1669 F       2  LIG2       -0.1620
      5 F           0.1215    4.1879    9.9434 F       1  LIG1       -0.1486
      6 F           1.6817    3.3328    8.7425 F       1  LIG1       -0.1486
      7 F           0.0933    4.4504    7.8130 F       1  LIG1       -0.1486
      8 O           6.3293    5.6607    6.8695 O.3     2  LIG2       -0.3274
      9 H           6.6509    6.2649    6.3575 H       2  LIG2        0.2171
     10 O           7.3733    7.2437    5.2049 O.3     3  HOH3       -0.4105
     11 O          -0.2714    1.5835    7.2810 O.2     1  LIG1       -0.1362
     12 O          -0.1359    1.2363    9.6840 O.3     1  LIG1       -0.0397
     13 O          -1.9585    2.5392    8.7384 O.2     1  LIG1       -0.1362
     14 N           6.4511    6.4581    9.1994 N.pl3   2  LIG2       -0.3426
     15 C           5.7617    7.6155    9.8286 C.ar    2  LIG2        0.1565
     16 C           5.9075    8.1294   11.0743 C.ar    2  LIG2        0.0044
     17 H           6.4247    7.6918   11.7399 H       2  LIG2        0.0681
     18 C           5.2419    9.3650   11.3315 C.ar    2  LIG2       -0.0552
     19 H           5.3052    9.7476   12.1988 H       2  LIG2        0.0620
     20 C           4.5141   10.0212   10.3736 C.ar    2  LIG2       -0.0536
     21 H           4.1221   10.8626   10.5771 H       2  LIG2        0.0624
     22 C           4.3383    9.4592    9.0772 C.ar    2  LIG2       -0.0112
     23 C           3.5940    9.9667    7.9861 C.ar    2  LIG2       -0.0538
     24 H           3.1611   10.8085    8.0609 H       2  LIG2        0.0624
     25 C           3.4937    9.2479    6.8175 C.ar    2  LIG2       -0.0606
     26 H           2.9905    9.6134    6.0989 H       2  LIG2        0.0618
     27 C           4.1138    7.9815    6.6418 C.ar    2  LIG2       -0.0485
     28 H           4.0090    7.4914    5.8345 H       2  LIG2        0.0624
     29 C           4.8668    7.4909    7.6727 C.ar    2  LIG2        0.0696
     30 C           4.9732    8.2271    8.8590 C.ar    2  LIG2        0.0598
     31 C           6.6799    5.3011   10.1321 C.3     2  LIG2        0.0838
     32 H           7.2970    5.5715   10.8435 H       2  LIG2        0.0932
     33 H           7.0657    4.5506    9.6330 H       2  LIG2        0.0932
     34 H           5.8265    5.0262   10.5275 H       2  LIG2        0.0932
     35 C           7.8078    6.9431    8.7392 C.3     2  LIG2        0.0838
     36 H           7.6949    7.7109    8.1416 H       2  LIG2        0.0932
     37 H           8.2667    6.2214    8.2602 H       2  LIG2        0.0932
     38 H           8.3406    7.2092    9.5173 H       2  LIG2        0.0932
     39 C           5.5600    6.1550    7.8595 C.3     2  LIG2        0.3415
     40 C           4.5211    5.0543    8.1707 C.3     2  LIG2        0.4841
     41 C           0.3819    3.5919    8.7848 C.3     1  LIG1        0.5487
     42 H           8.0888    7.0193    4.8126 H       0  HOH0        0.2052
     43 H           7.3246    8.0820    5.0946 H       0  HOH0        0.2052
@<TRIPOS>BOND
     1    42    10    1
     2    43    10    1
     3    28    27    1
     4    26    25    1
     5     9     8    1
     6    27    25   ar
     7    27    29   ar
     8    25    23   ar
     9     8    39    1
    10     4    40    1
    11    11     1    2
    12    29    39    1
    13    29    30   ar
    14     7    41    1
    15    39    40    1
    16    39    14    1
    17    23    24    1
    18    23    22   ar
    19    36    35    1
    20    40     2    1
    21    40     3    1
    22    37    35    1
    23     1    13    2
    24     1    41    1
    25     1    12    1
    26    35    14    1
    27    35    38    1
    28     6    41    1
    29    41     5    1
    30    30    22   ar
    31    30    15   ar
    32    22    20   ar
    33    14    15    1
    34    14    31    1
    35    33    31    1
    36    15    16   ar
    37    31    34    1
    38    31    32    1
    39    20    21    1
    40    20    18   ar
    41    16    18   ar
    42    16    17    1
    43    18    19    1
