@<TRIPOS>MOLECULE
?
 38 41 0 0 0
SMALL
GASTEIGER

@<TRIPOS>ATOM
      1 CL          1.6364    4.4177    6.7706 Cl      1  LIG1       -0.0835
      2 C           4.4880    3.7553   12.8205 C.2     1  LIG1        0.0500
      3 C           2.2674    3.7233   13.5514 C.2     1  LIG1        0.2558
      4 C           4.4684    3.6471   14.2854 C.ar    1  LIG1        0.0089
      5 C           3.1543    3.6192   14.7232 C.ar    1  LIG1        0.0465
      6 C           2.8316    3.4853   16.0639 C.ar    1  LIG1       -0.0490
      7 H           1.9463    3.4793   16.3490 H       1  LIG1        0.0625
      8 C           5.5150    3.5204   15.1926 C.ar    1  LIG1       -0.0521
      9 H           6.4018    3.5300   14.9110 H       1  LIG1        0.0624
     10 C           3.8727    3.3605   16.9599 C.ar    1  LIG1       -0.0610
     11 H           3.6886    3.2629   17.8661 H       1  LIG1        0.0618
     12 C           5.1885    3.3795   16.5268 C.ar    1  LIG1       -0.0611
     13 H           5.8714    3.2959   17.1524 H       1  LIG1        0.0618
     14 O           1.0516    3.7447   13.5074 O.2     1  LIG1       -0.2693
     15 C           2.6294    4.0061   11.1163 C.ar    1  LIG1        0.0417
     16 C           2.9674    5.1627   10.4420 C.ar    1  LIG1       -0.0385
     17 H           3.4133    5.8468   10.8867 H       1  LIG1        0.0637
     18 C           1.9544    4.2855    8.4708 C.ar    1  LIG1        0.0411
     19 C           1.8753    3.0245   10.4886 C.ar    1  LIG1       -0.0385
     20 H           1.6010    2.2730   10.9635 H       1  LIG1        0.0637
     21 C           5.5775    3.7795   12.0522 C.2     1  LIG1       -0.0322
     22 H           6.3882    3.7943   12.5066 H       1  LIG1        0.0642
     23 C           2.6433    5.3034    9.1065 C.ar    1  LIG1       -0.0416
     24 H           2.8849    6.0712    8.6406 H       1  LIG1        0.0633
     25 C           5.6741    3.7864   10.5794 C.ar    1  LIG1       -0.0232
     26 C           5.2075    2.7275    9.8208 C.ar    1  LIG1       -0.0545
     27 H           4.8522    1.9792   10.2439 H       1  LIG1        0.0623
     28 C           1.5317    3.1647    9.1545 C.ar    1  LIG1       -0.0416
     29 H           1.0243    2.5134    8.7257 H       1  LIG1        0.0633
     30 C           6.2519    4.8722    9.9167 C.ar    1  LIG1       -0.0545
     31 H           6.6120    5.5748   10.4082 H       1  LIG1        0.0623
     32 C           6.2924    4.9090    8.5383 C.ar    1  LIG1       -0.0612
     33 H           6.6571    5.6478    8.1065 H       1  LIG1        0.0618
     34 C           5.2648    2.7719    8.4416 C.ar    1  LIG1       -0.0612
     35 H           4.9404    2.0563    7.9435 H       1  LIG1        0.0618
     36 C           5.7976    3.8638    7.7997 C.ar    1  LIG1       -0.0617
     37 H           5.8226    3.8939    6.8707 H       1  LIG1        0.0618
     38 N           3.1088    3.7986   12.4467 N.am    1  LIG1       -0.2357
@<TRIPOS>BOND
     1     1    18    1
     2    37    36    1
     3    36    34   ar
     4    36    32   ar
     5    35    34    1
     6    33    32    1
     7    34    26   ar
     8    18    23   ar
     9    18    28   ar
    10    32    30   ar
    11    24    23    1
    12    29    28    1
    13    23    16   ar
    14    28    19   ar
    15    26    27    1
    16    26    25   ar
    17    30    31    1
    18    30    25   ar
    19    16    17    1
    20    16    15   ar
    21    19    20    1
    22    19    15   ar
    23    25    21    1
    24    15    38    1
    25    21    22    1
    26    21     2    2
    27    38     2    1
    28    38     3   am
    29     2     4    1
    30    14     3    2
    31     3     5    1
    32     4     5   ar
    33     4     8   ar
    34     5     6   ar
    35     9     8    1
    36     8    12   ar
    37     6     7    1
    38     6    10   ar
    39    12    10   ar
    40    12    13    1
    41    10    11    1
