@<TRIPOS>MOLECULE
?
 39 40 0 0 0
SMALL
GASTEIGER

@<TRIPOS>ATOM
      1 C          -0.5271    3.5503    9.5384 C.ar    1  LIG1       -0.0072
      2 C          -2.1129    4.0710    7.2463 C.ar    1  LIG1        0.0292
      3 C          -1.0968    4.8035    9.3210 C.ar    1  LIG1       -0.0514
      4 H          -0.9430    5.4960    9.9528 H       1  LIG1        0.0624
      5 C          -0.7394    2.5659    8.5701 C.ar    1  LIG1       -0.0514
      6 H          -0.3483    1.7084    8.6875 H       1  LIG1        0.0624
      7 C           0.2250    3.2900   10.7620 C.2     1  LIG1        0.0300
      8 H           0.3985    4.0200   11.3445 H       1  LIG1        0.0831
      9 C          -1.5037    2.8111    7.4488 C.ar    1  LIG1       -0.0401
     10 H          -1.6227    2.1235    6.8031 H       1  LIG1        0.0636
     11 C           2.8505    1.7915   12.0878 C.ar    1  LIG1       -0.0234
     12 C          -3.3345    5.6544    5.8310 C.3     1  LIG1        0.0004
     13 H          -3.7375    6.0671    6.6233 H       1  LIG1        0.0428
     14 H          -3.9923    5.6277    5.1054 H       1  LIG1        0.0428
     15 H          -2.5576    6.1806    5.5473 H       1  LIG1        0.0428
     16 C           1.3776    2.0391   12.3764 C.3     1  LIG1        0.0729
     17 H           1.2906    2.9106   12.8596 H       1  LIG1        0.0591
     18 C           4.9197    2.6351   11.1573 C.ar    1  LIG1       -0.0614
     19 H           5.4039    3.3403   10.7447 H       1  LIG1        0.0618
     20 C           3.5847    2.8111   11.4876 C.ar    1  LIG1       -0.0566
     21 H           3.1634    3.6413   11.3005 H       1  LIG1        0.0621
     22 C          -1.8778    5.0681    8.2144 C.ar    1  LIG1       -0.0401
     23 H          -2.2611    5.9305    8.1042 H       1  LIG1        0.0636
     24 C           3.4927    0.5941   12.3732 C.ar    1  LIG1       -0.0566
     25 H           3.0136   -0.1086   12.7965 H       1  LIG1        0.0621
     26 C           0.7018    0.9613   13.2019 C.3     1  LIG1       -0.0385
     27 H          -0.2351    1.2047   13.3523 H       1  LIG1        0.0253
     28 H           1.1598    0.8745   14.0646 H       1  LIG1        0.0253
     29 H           0.7441    0.1074   12.7224 H       1  LIG1        0.0253
     30 C          -3.0263    3.3094    5.0999 C.3     1  LIG1        0.0004
     31 H          -2.1471    3.1637    4.6909 H       1  LIG1        0.0428
     32 H          -3.6547    3.6280    4.4192 H       1  LIG1        0.0428
     33 H          -3.3542    2.4670    5.4787 H       1  LIG1        0.0428
     34 C           5.5459    1.4317   11.4302 C.ar    1  LIG1       -0.0617
     35 H           6.4587    1.3048   11.1976 H       1  LIG1        0.0618
     36 C           4.8369    0.4151   12.0423 C.ar    1  LIG1       -0.0614
     37 H           5.2661   -0.4090   12.2393 H       1  LIG1        0.0618
     38 N           0.6622    2.1411   11.0928 N.2     1  LIG1       -0.2833
     39 N          -2.9118    4.2998    6.1523 N.pl3   1  LIG1       -0.3360
@<TRIPOS>BOND
     1    32    30    1
     2    31    30    1
     3    30    33    1
     4    30    39    1
     5    14    12    1
     6    15    12    1
     7    12    39    1
     8    12    13    1
     9    39     2    1
    10    10     9    1
    11     2     9   ar
    12     2    22   ar
    13     9     5   ar
    14    23    22    1
    15    22     3   ar
    16     5     6    1
    17     5     1   ar
    18     3     1   ar
    19     3     4    1
    20     1     7    1
    21    19    18    1
    22     7    38    2
    23     7     8    1
    24    38    16    1
    25    18    34   ar
    26    18    20   ar
    27    35    34    1
    28    21    20    1
    29    34    36   ar
    30    20    11   ar
    31    36    37    1
    32    36    24   ar
    33    11    24   ar
    34    11    16    1
    35    24    25    1
    36    16    17    1
    37    16    26    1
    38    29    26    1
    39    26    27    1
    40    26    28    1
