@<TRIPOS>MOLECULE
?
 70 69 0 0 0
SMALL
GASTEIGER

@<TRIPOS>ATOM
      1 N           5.5320   -4.8926   -4.7483 N.3     1  LIG1       -0.2874
      2 N           6.2767   -3.1544   -3.0154 N.4     1  LIG1        0.2460
      3 N           5.1538    6.6461    2.8554 N.4     1  LIG1        0.2460
      4 N           5.3505    8.3965    4.7049 N.3     1  LIG1       -0.2874
      5 C           5.5337   -3.5514   -5.3518 C.3     1  LIG1        0.0396
      6 H           4.6176   -3.3261   -5.6513 H       1  LIG1        0.0479
      7 H           6.1237   -3.5530   -6.1474 H       1  LIG1        0.0479
      8 C           6.0246   -2.4739   -4.3528 C.3     1  LIG1       -0.0169
      9 H           6.8600   -2.0570   -4.6866 H       1  LIG1        0.0828
     10 H           5.3404   -1.7658   -4.2522 H       1  LIG1        0.0828
     11 C           4.6277   -4.8941   -3.6121 C.3     1  LIG1        0.0396
     12 H           4.6361   -5.7908   -3.1937 H       1  LIG1        0.0479
     13 H           3.7082   -4.7148   -3.9299 H       1  LIG1        0.0479
     14 C           5.0193   -3.8289   -2.5467 C.3     1  LIG1       -0.0169
     15 H           4.2932   -3.1636   -2.4462 H       1  LIG1        0.0828
     16 H           5.1706   -4.2626   -1.6689 H       1  LIG1        0.0828
     17 C           6.8936   -5.2099   -4.2911 C.3     1  LIG1        0.0396
     18 H           7.5189   -5.1624   -5.0592 H       1  LIG1        0.0479
     19 H           6.9155   -6.1341   -3.9367 H       1  LIG1        0.0479
     20 C           7.3508   -4.2182   -3.1892 C.3     1  LIG1       -0.0169
     21 H           7.4887   -4.7010   -2.3364 H       1  LIG1        0.0828
     22 H           8.2081   -3.7936   -3.4475 H       1  LIG1        0.0828
     23 C           6.8012   -2.1505   -1.9844 C.3     1  LIG1       -0.0299
     24 H           6.8583   -2.6011   -1.1065 H       1  LIG1        0.0815
     25 H           7.7190   -1.8838   -2.2450 H       1  LIG1        0.0815
     26 C           5.9573   -0.8951   -1.8312 C.3     1  LIG1       -0.0124
     27 H           5.0294   -1.1434   -1.5911 H       1  LIG1        0.0317
     28 H           5.9321   -0.4031   -2.6908 H       1  LIG1        0.0317
     29 C           6.5524    0.0015   -0.7384 C.3     1  LIG1       -0.0483
     30 H           6.4667   -0.4537    0.1372 H       1  LIG1        0.0267
     31 H           7.5156    0.1364   -0.9190 H       1  LIG1        0.0267
     32 C           5.8598    1.3580   -0.6698 C.3     1  LIG1       -0.0529
     33 H           4.8866    1.2140   -0.5624 H       1  LIG1        0.0265
     34 H           6.0010    1.8317   -1.5271 H       1  LIG1        0.0265
     35 C           6.3523    2.2486    0.4687 C.3     1  LIG1       -0.0529
     36 H           7.2970    2.4969    0.3086 H       1  LIG1        0.0265
     37 H           6.3086    1.7474    1.3214 H       1  LIG1        0.0265
     38 C           5.4900    3.5315    0.5784 C.3     1  LIG1       -0.0483
     39 H           5.5539    4.0327   -0.2743 H       1  LIG1        0.0267
     40 H           4.5436    3.2725    0.7041 H       1  LIG1        0.0267
     41 C           5.9035    4.4420    1.7123 C.3     1  LIG1       -0.0124
     42 H           6.8415    4.7332    1.5866 H       1  LIG1        0.0317
     43 H           5.8397    3.9591    2.5742 H       1  LIG1        0.0317
     44 C           4.9857    5.6452    1.7260 C.3     1  LIG1       -0.0299
     45 H           4.0528    5.3141    1.7466 H       1  LIG1        0.0815
     46 H           5.1051    6.1280    0.8687 H       1  LIG1        0.0815
     47 C           6.5961    7.0094    3.0451 C.3     1  LIG1       -0.0169
     48 H           6.9894    7.3052    2.1855 H       1  LIG1        0.0828
     49 H           7.1071    6.2261    3.3698 H       1  LIG1        0.0828
     50 C           6.6549    8.1666    4.0922 C.3     1  LIG1        0.0396
     51 H           7.3122    7.9382    4.7986 H       1  LIG1        0.0479
     52 H           6.9592    8.9974    3.6487 H       1  LIG1        0.0479
     53 C           4.5655    6.0928    4.1310 C.3     1  LIG1       -0.0169
     54 H           4.9925    5.2298    4.3619 H       1  LIG1        0.0828
     55 H           3.5922    5.9441    4.0259 H       1  LIG1        0.0828
     56 C           4.8361    7.1504    5.2535 C.3     1  LIG1        0.0396
     57 H           3.9940    7.3312    5.7428 H       1  LIG1        0.0479
     58 H           5.4900    6.7825    5.9005 H       1  LIG1        0.0479
     59 C           4.3957    7.8953    2.4690 C.3     1  LIG1       -0.0169
     60 H           3.4577    7.6684    2.2496 H       1  LIG1        0.0828
     61 H           4.8109    8.3122    1.6734 H       1  LIG1        0.0828
     62 C           4.4377    8.8717    3.6601 C.3     1  LIG1        0.0396
     63 H           4.7336    9.7622    3.3446 H       1  LIG1        0.0479
     64 H           3.5283    8.9682    4.0396 H       1  LIG1        0.0479
     65 I           1.5915   -3.3988   -5.8337 I       1  LIG1        0.0000
     66 I           1.8136   -1.7487   -3.5801 I       1  LIG1        0.0000
     67 I           1.8413   -0.0687   -1.3296 I       2  LIG2        0.0000
     68 I           1.3086    2.7343    0.8500 I       3  LIG3        0.0000
     69 I           0.9260    5.0252    2.4946 I       3  LIG3        0.0000
     70 I           0.6867    7.4042    4.0570 I       3  LIG3        0.0000
@<TRIPOS>BOND
     1     7     5    1
     2    65    66    1
     3     6     5    1
     4     5     1    1
     5     5     8    1
     6    18    17    1
     7     1    17    1
     8     1    11    1
     9     9     8    1
    10     8    10    1
    11     8     2    1
    12    17    19    1
    13    17    20    1
    14    13    11    1
    15    11    12    1
    16    11    14    1
    17    22    20    1
    18    20     2    1
    19    20    21    1
    20     2    14    1
    21     2    23    1
    22    28    26    1
    23    14    15    1
    24    14    16    1
    25    25    23    1
    26    23    26    1
    27    23    24    1
    28    26    27    1
    29    26    29    1
    30    34    32    1
    31    31    29    1
    32    29    32    1
    33    29    30    1
    34    32    33    1
    35    32    35    1
    36    39    38    1
    37    36    35    1
    38    35    38    1
    39    35    37    1
    40    38    40    1
    41    38    41    1
    42    68    69    1
    43    46    44    1
    44    42    41    1
    45    61    59    1
    46    41    44    1
    47    41    43    1
    48    44    45    1
    49    44     3    1
    50    48    47    1
    51    60    59    1
    52    59     3    1
    53    59    62    1
    54     3    47    1
    55     3    53    1
    56    47    49    1
    57    47    50    1
    58    63    62    1
    59    52    50    1
    60    62    64    1
    61    62     4    1
    62    55    53    1
    63    50     4    1
    64    50    51    1
    65    53    54    1
    66    53    56    1
    67     4    56    1
    68    56    57    1
    69    56    58    1
