@<TRIPOS>MOLECULE
?
 41 40 0 0 0
SMALL
GASTEIGER

@<TRIPOS>ATOM
      1 I          -2.3769    2.1116    0.0472 I       1  LIG1        0.1075
      2 I          -4.5961    2.2078   -1.6193 I       2  LIG2        0.0000
      3 N          -0.4326    2.0263    1.6219 N.4     1  LIG1        0.3146
      4 N           1.5227    1.8801    3.2461 N.4     1  LIG1        0.2544
      5 C           0.8115    2.4778    0.9529 C.3     1  LIG1        0.0186
      6 H           0.7545    3.4489    0.7644 H       1  LIG1        0.0870
      7 H           0.9170    2.0028    0.0907 H       1  LIG1        0.0870
      8 C           2.0281    2.1967    1.8492 C.3     1  LIG1        0.0117
      9 H           2.5431    1.4296    1.4923 H       1  LIG1        0.0868
     10 H           2.6218    2.9881    1.8739 H       1  LIG1        0.0868
     11 C          -0.6922    2.8945    2.7785 C.3     1  LIG1        0.0186
     12 H          -1.4595    2.5420    3.2956 H       1  LIG1        0.0870
     13 H          -0.9228    3.8065    2.4687 H       1  LIG1        0.0870
     14 C           0.5608    2.9509    3.6795 C.3     1  LIG1        0.0117
     15 H           0.9904    3.8404    3.6041 H       1  LIG1        0.0868
     16 H           0.3033    2.8094    4.6253 H       1  LIG1        0.0868
     17 C          -0.2626    0.6364    2.0918 C.3     1  LIG1        0.0186
     18 H           0.0222    0.0653    1.3345 H       1  LIG1        0.0870
     19 H          -1.1288    0.2926    2.4263 H       1  LIG1        0.0870
     20 C           0.7774    0.5627    3.2037 C.3     1  LIG1        0.0117
     21 H           0.3327    0.3968    4.0729 H       1  LIG1        0.0868
     22 H           1.4093   -0.1794    3.0294 H       1  LIG1        0.0868
     23 C           2.6668    1.8068    4.2578 C.3     1  LIG1       -0.0294
     24 H           2.9746    2.7264    4.4569 H       1  LIG1        0.0815
     25 H           2.3203    1.4180    5.1000 H       1  LIG1        0.0815
     26 C           3.8572    0.9840    3.7938 C.3     1  LIG1       -0.0124
     27 H           4.3205    1.4620    3.0612 H       1  LIG1        0.0317
     28 H           3.5381    0.1164    3.4381 H       1  LIG1        0.0317
     29 C           4.8432    0.7298    4.9363 C.3     1  LIG1       -0.0483
     30 H           5.1453    1.6037    5.2896 H       1  LIG1        0.0267
     31 H           5.6376    0.2678    4.5676 H       1  LIG1        0.0267
     32 C           4.2904   -0.1055    6.1047 C.3     1  LIG1       -0.0529
     33 H           5.0102   -0.2433    6.7701 H       1  LIG1        0.0265
     34 H           3.5648    0.4029    6.5475 H       1  LIG1        0.0265
     35 P           4.6842    5.4490    3.9865 P.3     3  LIG3        0.6235
     36 F           5.2315    4.2180    4.8597 F       3  LIG3       -0.1039
     37 F           3.1776    5.0975    4.4180 F       3  LIG3       -0.1039
     38 F           4.5425    4.4706    2.7420 F       3  LIG3       -0.1039
     39 F           4.1374    6.6622    3.1095 F       3  LIG3       -0.1039
     40 F           6.1746    5.8078    3.5452 F       3  LIG3       -0.1039
     41 F           4.8113    6.4153    5.2496 F       3  LIG3       -0.1039
@<TRIPOS>BOND
     1     1     3    1
     2     7     5    1
     3     6     5    1
     4     5     3    1
     5     5     8    1
     6    18    17    1
     7     9     8    1
     8     3    17    1
     9     3    11    1
    10     8    10    1
    11     8     4    1
    12    17    19    1
    13    17    20    1
    14    13    11    1
    15    38    35    1
    16    11    12    1
    17    11    14    1
    18    22    20    1
    19    27    26    1
    20    39    35    1
    21    20     4    1
    22    20    21    1
    23     4    14    1
    24     4    23    1
    25    28    26    1
    26    40    35    1
    27    15    14    1
    28    14    16    1
    29    26    23    1
    30    26    29    1
    31    35    37    1
    32    35    36    1
    33    35    41    1
    34    23    24    1
    35    23    25    1
    36    31    29    1
    37    29    30    1
    38    29    32    1
    39    32    34    1
    40    32    33    1
