@<TRIPOS>MOLECULE
(bis)vanillic acid (bis)isonicotinamide dihydrate
 76 74 0 0 0
SMALL
GASTEIGER

@<TRIPOS>ATOM
      1 O           2.1979    7.6702    4.4317 O.2     1  LIG1       -0.2451
      2 O           1.3146   11.1584    0.6981 O.2     2  LIG2       -0.2704
      3 O           5.6895    8.9508    9.2001 O.3     1  LIG1       -0.4914
      4 O           3.0718    6.2453    5.9129 O.3     1  LIG1       -0.4771
      5 N          -0.7427    6.7453   -0.2144 N.ar    2  LIG2       -0.2632
      6 O           5.6014   11.3882    8.3649 O.3     1  LIG1       -0.5033
      7 N           1.9036   10.0589    2.5699 N.am    2  LIG2       -0.3253
      8 C           4.1435   10.8204    6.5271 C.ar    1  LIG1       -0.0157
      9 H           4.0885   11.7263    6.2450 H       1  LIG1        0.0655
     10 C           0.6139    8.9075    0.8649 C.ar    2  LIG2        0.0393
     11 C          -0.0831    9.0219   -0.3196 C.ar    2  LIG2       -0.0315
     12 H          -0.1139    9.8523   -0.7796 H       2  LIG2        0.0640
     13 C           3.5468    8.5124    6.2185 C.ar    1  LIG1        0.0625
     14 C           2.8661    7.4528    5.4334 C.2     1  LIG1        0.3369
     15 C           4.2939    8.1785    7.3560 C.ar    1  LIG1       -0.0023
     16 H           4.3436    7.2731    7.6417 H       1  LIG1        0.0663
     17 C          -0.7375    7.9190   -0.8330 C.ar    2  LIG2        0.0283
     18 H          -1.1997    8.0041   -1.6589 H       2  LIG2        0.0830
     19 C           0.6093    7.6849    1.5075 C.ar    2  LIG2       -0.0315
     20 H           1.0741    7.5678    2.3279 H       2  LIG2        0.0640
     21 C           5.7734    7.6154    9.6782 C.3     1  LIG1        0.0790
     22 H           4.8776    7.2957    9.9123 H       1  LIG1        0.0660
     23 H           6.3476    7.5873   10.4720 H       1  LIG1        0.0660
     24 H           6.1533    7.0416    8.9797 H       1  LIG1        0.0660
     25 C           4.8961   10.4889    7.6352 C.ar    1  LIG1        0.1585
     26 C           4.9576    9.1600    8.0636 C.ar    1  LIG1        0.1620
     27 C           3.4683    9.8350    5.8257 C.ar    1  LIG1       -0.0441
     28 H           2.9469   10.0713    5.0681 H       1  LIG1        0.0627
     29 C           1.3167   10.1354    1.3855 C.2     2  LIG2        0.2416
     30 C          -0.0842    6.6361    0.9342 C.ar    2  LIG2        0.0283
     31 H          -0.0896    5.7988    1.3817 H       2  LIG2        0.0830
     32 O           4.4522    2.9650    9.0005 O.3     3  LIG3       -0.4914
     33 O           7.5648    4.4888   13.9497 O.2     3  LIG3       -0.2451
     34 O           7.1119    5.7730   12.1883 O.3     3  LIG3       -0.4771
     35 O           4.3257    0.6173   10.0570 O.3     3  LIG3       -0.5033
     36 C           5.0225    1.5364   10.7641 C.ar    3  LIG3        0.1585
     37 C           6.3183    2.2853   12.6415 C.ar    3  LIG3       -0.0441
     38 H           6.7317    2.1033   13.4771 H       3  LIG3        0.0627
     39 C           5.6416    1.2796   11.9667 C.ar    3  LIG3       -0.0157
     40 H           5.6055    0.4056   12.3371 H       3  LIG3        0.0655
     41 C           6.3885    3.5546   12.0938 C.ar    3  LIG3        0.0625
     42 C           5.7840    3.8167   10.8587 C.ar    3  LIG3       -0.0023
     43 H           5.8448    4.6840   10.4748 H       3  LIG3        0.0663
     44 C           7.0787    4.6344   12.8319 C.2     3  LIG3        0.3369
     45 C           5.0987    2.8185   10.1971 C.ar    3  LIG3        0.1620
     46 C           4.3507    4.2834    8.4660 C.3     3  LIG3        0.0790
     47 H           3.9337    4.8734    9.1286 H       3  LIG3        0.0660
     48 H           3.8017    4.2656    7.6540 H       3  LIG3        0.0660
     49 H           5.2459    4.6180    8.2479 H       3  LIG3        0.0660
     50 O           6.7044   11.1279   11.0812 O.3     4  HOH4       -0.4105
     51 O           2.5897    0.9995    7.7519 O.3     5  HOH5       -0.4105
     52 N           2.1616    4.1619    4.5925 N.ar    6  LIG6       -0.2632
     53 O           0.2711   -0.3533    3.7036 O.2     6  LIG6       -0.2704
     54 C           0.9988    1.8932    3.4925 C.ar    6  LIG6        0.0393
     55 C           0.6990    3.1499    3.0013 C.ar    6  LIG6       -0.0315
     56 H           0.1010    3.2548    2.2705 H       6  LIG6        0.0640
     57 N          -0.0972    0.6614    1.7237 N.am    6  LIG6       -0.3253
     58 C           2.4621    2.9480    5.0475 C.ar    6  LIG6        0.0283
     59 H           3.0940    2.8712    5.7535 H       6  LIG6        0.0830
     60 C           1.8983    1.7945    4.5408 C.ar    6  LIG6       -0.0315
     61 H           2.1229    0.9463    4.9056 H       6  LIG6        0.0640
     62 C           0.3605    0.6375    2.9681 C.2     6  LIG6        0.2416
     63 C           1.2892    4.2522    3.5950 C.ar    6  LIG6        0.0283
     64 H           1.0580    5.1159    3.2740 H       6  LIG6        0.0830
     65 H          -0.5349   -0.1329    1.3053 H       6  LIG6        0.1453
     66 H           2.3199   10.8333    2.9996 H       2  LIG2        0.1453
     67 H           5.4762   12.3193    8.0145 H       1  LIG1        0.2923
     68 H           2.7298    5.4851    5.2934 H       1  LIG1        0.2954
     69 H           4.3869   -0.2472   10.6168 H       3  LIG3        0.2923
     70 H           1.9884    9.2404    3.0706 H       2  LIG2        0.1453
     71 H           0.0388    1.3819    1.0868 H       6  LIG6        0.1453
     72 H           6.3588   10.6361   10.4215 H       0  HOH0        0.2052
     73 H           1.8942    1.1509    8.4350 H       0  HOH0        0.2052
     74 H           6.1431   10.9130   11.8114 H       0  HOH0        0.2052
     75 H           3.2122    1.4278    8.2384 H       0  HOH0        0.2052
     76 H           7.5830    6.5606   12.6716 H       3  LIG3        0.2954
@<TRIPOS>BOND
     1    18    17    1
     2    17    11   ar
     3    17     5   ar
     4    12    11    1
     5    11    10   ar
     6     5    30   ar
     7     2    29    2
     8    10    29    1
     9    10    19   ar
    10    30    31    1
    11    30    19   ar
    12    71    57    1
    13    65    57    1
    14    29     7   am
    15    19    20    1
    16    57    62   am
    17    56    55    1
    18     7    66    1
    19     7    70    1
    20    62    54    1
    21    62    53    2
    22    55    54   ar
    23    55    63   ar
    24    64    63    1
    25    54    60   ar
    26    63    52   ar
    27     1    14    2
    28    60    61    1
    29    60    58   ar
    30    52    58   ar
    31    58    59    1
    32    28    27    1
    33    68     4    1
    34    14     4    1
    35    14    13    1
    36    27    13   ar
    37    27     8   ar
    38    13    15   ar
    39     9     8    1
    40     8    25   ar
    41    15    16    1
    42    15    26   ar
    43    25    26   ar
    44    25     6    1
    45    48    46    1
    46    51    75    1
    47    51    73    1
    48    67     6    1
    49    26     3    1
    50    49    46    1
    51    46    32    1
    52    46    47    1
    53    24    21    1
    54    32    45    1
    55     3    21    1
    56    21    22    1
    57    21    23    1
    58    35    69    1
    59    35    36    1
    60    45    36   ar
    61    45    42   ar
    62    72    50    1
    63    43    42    1
    64    36    39   ar
    65    42    41   ar
    66    50    74    1
    67    39    40    1
    68    39    37   ar
    69    41    37   ar
    70    41    44    1
    71    34    76    1
    72    34    44    1
    73    37    38    1
    74    44    33    2
