@<TRIPOS>MOLECULE
?
 150 158 0 0 0
SMALL
GASTEIGER

@<TRIPOS>ATOM
      1 CL          2.3580   11.4265    6.5675 Cl      1  LIG1       -0.0827
      2 CL         -2.9215   11.2061    5.3586 Cl      1  LIG1       -0.0827
      3 CL          0.0219    3.5182    6.8967 Cl      2  LIG2       -0.0827
      4 CL         -4.9902    4.2544    4.9861 Cl      2  LIG2       -0.0827
      5 P          -0.1049    7.8563    4.0293 P.3     1  LIG1        0.3064
      6 P          -2.4551    7.3250    8.0136 P.3     2  LIG2        0.3064
      7 O          -1.7978    8.4768    7.3571 O.2     2  LIG2       -0.2645
      8 O          -0.7483    6.7069    4.7025 O.2     1  LIG1       -0.2645
      9 O          -3.4790    4.3954    7.9045 O.2     2  LIG2       -0.2697
     10 O           0.5893   10.8921    3.8916 O.2     1  LIG1       -0.2697
     11 N          -2.2185    6.0304    6.9455 N.am    2  LIG2       -0.2379
     12 N          -1.8793    6.8247    9.4686 N.3     2  LIG2       -0.2173
     13 N           1.5181    7.7962    3.7596 N.3     1  LIG1       -0.2173
     14 N          -0.8016    8.1405    2.5747 N.3     1  LIG1       -0.2173
     15 N          -4.0427    7.6506    8.2815 N.3     2  LIG2       -0.2173
     16 N          -0.3148    9.1609    5.0851 N.am    1  LIG1       -0.2379
     17 C          -1.2953    4.8274   10.8700 C.ar    2  LIG2       -0.0329
     18 C          -2.7683    4.7871    6.9983 C.2     2  LIG2        0.2539
     19 C          -1.2946    6.1391    1.1778 C.ar    1  LIG1       -0.0329
     20 C           0.7169   11.9407    6.8170 C.ar    1  LIG1        0.0545
     21 C          -1.2304    9.9553    0.9247 C.ar    1  LIG1       -0.0329
     22 C           1.3844    8.8123   12.2053 C.ar    2  LIG2       -0.0615
     23 C          -1.8743   12.7666    7.2779 C.ar    1  LIG1       -0.0426
     24 C          -3.3985    3.5848    4.8617 C.ar    2  LIG2        0.0545
     25 C          -1.2022    3.2628    5.6893 C.ar    2  LIG2        0.0545
     26 C          -3.0509   11.5238    1.1210 C.ar    1  LIG1       -0.0615
     27 C           0.0373   10.4696    4.8868 C.2     1  LIG1        0.2539
     28 C          -0.5913    8.5209   10.8265 C.ar    2  LIG2       -0.0329
     29 C           2.0188    7.0191    2.6138 C.3     1  LIG1        0.0332
     30 C           3.4616    3.0154    3.2674 C.ar    1  LIG1       -0.0617
     31 C          -7.7736    5.4347    7.5893 C.ar    2  LIG2       -0.0615
     32 C          -7.3348    7.3115    9.5615 C.ar    2  LIG2       -0.0573
     33 C          -0.2973   11.4020    6.0309 C.ar    1  LIG1        0.0736
     34 C           1.8408    9.8035   11.3555 C.ar    2  LIG2       -0.0617
     35 C          -1.5935   11.8335    6.2906 C.ar    1  LIG1        0.0545
     36 C          -1.9161    7.8218   10.5697 C.3     2  LIG2        0.0332
     37 C          -4.8354    7.0582    9.3787 C.3     2  LIG2        0.0332
     38 C          -6.2443    6.6989    8.9590 C.ar    2  LIG2       -0.0329
     39 C          -2.4409    3.8825    5.8252 C.ar    2  LIG2        0.0736
     40 C           2.5642    3.5642    4.1668 C.ar    1  LIG1       -0.0615
     41 C          -1.2374   10.1576   -0.4485 C.ar    1  LIG1       -0.0573
     42 C          -6.4824    5.7424    7.9753 C.ar    2  LIG2       -0.0573
     43 C           6.4428    8.9697    3.6259 C.ar    1  LIG1       -0.0617
     44 C           6.1726    7.7213    4.1540 C.ar    1  LIG1       -0.0615
     45 C          -0.2441    4.1444   -0.4649 C.ar    1  LIG1       -0.0617
     46 C          -1.8504    7.2209    2.0698 C.3     1  LIG1        0.0332
     47 C          -0.9110    2.4061    4.6391 C.ar    2  LIG2       -0.0426
     48 C          -0.1151    9.5139    9.9728 C.ar    2  LIG2       -0.0573
     49 C          -0.3905    4.6534   11.9067 C.ar    2  LIG2       -0.0573
     50 C          -8.6344    7.0042    9.1818 C.ar    2  LIG2       -0.0615
     51 C           4.8865    7.4013    4.5523 C.ar    1  LIG1       -0.0573
     52 C           2.0746    4.8559    3.9719 C.ar    1  LIG1       -0.0573
     53 C           3.8542    8.3244    4.4484 C.ar    1  LIG1       -0.0329
     54 C          -4.7070    8.7354    7.5347 C.3     2  LIG2        0.0332
     55 C          -4.9791    9.9708    8.3763 C.ar    2  LIG2       -0.0329
     56 C           2.5066    5.6134    2.8917 C.ar    1  LIG1       -0.0329
     57 C          -0.2573    3.9790    0.9099 C.ar    1  LIG1       -0.0615
     58 C          -1.2751    6.2952   -0.2059 C.ar    1  LIG1       -0.0573
     59 C           0.1655    8.1862   11.9401 C.ar    2  LIG2       -0.0573
     60 C           0.4671   12.8639    7.8181 C.ar    1  LIG1       -0.0426
     61 C          -3.0574   11.7105   -0.2536 C.ar    1  LIG1       -0.0617
     62 C          -2.7663    3.2455   11.9502 C.ar    2  LIG2       -0.0615
     63 C          -0.7474    5.3006   -1.0188 C.ar    1  LIG1       -0.0615
     64 C          -0.2216    9.0245    1.5498 C.3     1  LIG1        0.0332
     65 C           4.1353    9.5863    3.9510 C.ar    1  LIG1       -0.0573
     66 C          -8.8548    6.0625    8.1866 C.ar    2  LIG2       -0.0617
     67 C          -0.7796    4.9716    1.7307 C.ar    1  LIG1       -0.0573
     68 C          -2.4893    4.1167   10.8997 C.ar    2  LIG2       -0.0573
     69 C          -3.9268   10.7063    8.9106 C.ar    2  LIG2       -0.0573
     70 C           2.4608    7.9529    4.8988 C.3     1  LIG1        0.0332
     71 C          -3.1351    2.7401    3.7916 C.ar    2  LIG2       -0.0426
     72 C          -0.9346    5.7166    9.6959 C.3     2  LIG2        0.0332
     73 C          -0.8364   13.2673    8.0412 C.ar    1  LIG1       -0.0590
     74 C           5.4226    9.8983    3.5296 C.ar    1  LIG1       -0.0615
     75 C           3.3974    5.0472    1.9899 C.ar    1  LIG1       -0.0573
     76 C          -1.8539    3.0849   12.9823 C.ar    2  LIG2       -0.0617
     77 C          -2.1425   11.0320   -1.0350 C.ar    1  LIG1       -0.0615
     78 C           1.0926   10.1505   10.2436 C.ar    2  LIG2       -0.0615
     79 C          -6.2782   10.4162    8.5923 C.ar    2  LIG2       -0.0573
     80 C          -2.1436   10.6573    1.7071 C.ar    1  LIG1       -0.0573
     81 C          -0.6665    3.7850   12.9589 C.ar    2  LIG2       -0.0615
     82 C          -4.1685   11.8532    9.6507 C.ar    2  LIG2       -0.0615
     83 C          -6.5207   11.5657    9.3339 C.ar    2  LIG2       -0.0615
     84 C           3.8637    3.7524    2.1712 C.ar    1  LIG1       -0.0615
     85 C          -1.8814    2.1683    3.6844 C.ar    2  LIG2       -0.0590
     86 C          -5.4672   12.2853    9.8750 C.ar    2  LIG2       -0.0617
     87 H          -0.7244    8.9672    5.8188 H       1  LIG1        0.1588
     88 H          -1.7948    6.2188    6.2783 H       2  LIG2        0.1588
     89 H           1.9023    8.5568   12.9720 H       2  LIG2        0.0618
     90 H          -2.7758   13.0601    7.4287 H       1  LIG1        0.0632
     91 H          -3.6797   11.9983    1.6697 H       1  LIG1        0.0618
     92 H           2.7092    7.5151    2.1679 H       1  LIG1        0.0481
     93 H           1.3495    6.9954    1.9261 H       1  LIG1        0.0481
     94 H           3.8022    2.1284    3.4048 H       1  LIG1        0.0618
     95 H          -7.9223    4.7812    6.9020 H       2  LIG2        0.0618
     96 H          -7.1874    7.9601   10.2537 H       2  LIG2        0.0621
     97 H           2.6721   10.2485   11.5358 H       2  LIG2        0.0618
     98 H          -2.2152    7.3963   11.3767 H       2  LIG2        0.0481
     99 H          -2.5933    8.4768   10.3858 H       2  LIG2        0.0481
    100 H          -4.8679    7.6710   10.1170 H       2  LIG2        0.0481
    101 H          -4.3899    6.2743    9.7083 H       2  LIG2        0.0481
    102 H           2.2776    3.0540    4.9279 H       1  LIG1        0.0618
    103 H          -0.6082    9.6869   -0.9998 H       1  LIG1        0.0621
    104 H          -5.7426    5.2922    7.5612 H       2  LIG2        0.0621
    105 H           7.3290    9.1898    3.3294 H       1  LIG1        0.0618
    106 H           6.8774    7.0759    4.2444 H       1  LIG1        0.0618
    107 H           0.1145    3.4560   -1.0298 H       1  LIG1        0.0618
    108 H          -2.5123    7.7235    1.5892 H       1  LIG1        0.0481
    109 H          -2.3085    6.8197    2.8120 H       1  LIG1        0.0481
    110 H          -0.0503    1.9853    4.5761 H       2  LIG2        0.0632
    111 H          -0.6217    9.7596    9.1952 H       2  LIG2        0.0621
    112 H           0.4375    5.1387   11.8985 H       2  LIG2        0.0621
    113 H          -9.3768    7.4408    9.6059 H       2  LIG2        0.0618
    114 H           4.7051    6.5275    4.9061 H       1  LIG1        0.0621
    115 H           1.4360    5.2227    4.5877 H       1  LIG1        0.0621
    116 H          -5.5320    8.4114    7.1660 H       2  LIG2        0.0481
    117 H          -4.1707    8.9768    6.7761 H       2  LIG2        0.0481
    118 H           0.0962    3.1750    1.2977 H       1  LIG1        0.0618
    119 H          -1.6288    7.0957   -0.6004 H       1  LIG1        0.0621
    120 H          -0.1558    7.5097   12.5408 H       2  LIG2        0.0621
    121 H           1.1857   13.2175    8.3473 H       1  LIG1        0.0632
    122 H          -3.6923   12.3061   -0.6581 H       1  LIG1        0.0618
    123 H          -3.5912    2.7545   11.9602 H       2  LIG2        0.0618
    124 H          -0.7335    5.4195   -1.9712 H       1  LIG1        0.0618
    125 H           0.1906    8.4928    0.8648 H       1  LIG1        0.0481
    126 H           0.4913    9.5382    1.9364 H       1  LIG1        0.0481
    127 H           3.4402   10.2463    3.8972 H       1  LIG1        0.0621
    128 H          -9.7499    5.8477    7.9138 H       2  LIG2        0.0618
    129 H          -0.7851    4.8508    2.6831 H       1  LIG1        0.0621
    130 H          -3.1276    4.2272   10.1913 H       2  LIG2        0.0621
    131 H          -3.0232   10.4166    8.7652 H       2  LIG2        0.0621
    132 H           2.4941    7.1357    5.4013 H       1  LIG1        0.0481
    133 H           2.1287    8.6246    5.4989 H       1  LIG1        0.0481
    134 H          -3.8127    2.5564    3.1368 H       2  LIG2        0.0632
    135 H          -0.0511    6.0702    9.8217 H       2  LIG2        0.0481
    136 H          -0.8684    5.1843    8.8998 H       2  LIG2        0.0481
    137 H          -1.0231   13.9035    8.7354 H       1  LIG1        0.0618
    138 H           5.6057   10.7683    3.1674 H       1  LIG1        0.0618
    139 H           3.6943    5.5568    1.2325 H       1  LIG1        0.0621
    140 H          -2.0475    2.4889   13.7093 H       2  LIG2        0.0618
    141 H          -2.1326   11.1654   -1.9855 H       1  LIG1        0.0618
    142 H           1.4101   10.8376    9.6531 H       2  LIG2        0.0618
    143 H          -7.0159    9.9241    8.2248 H       2  LIG2        0.0621
    144 H          -2.1441   10.5398    2.6598 H       1  LIG1        0.0621
    145 H          -0.0299    3.6737   13.6687 H       2  LIG2        0.0618
    146 H          -3.4314   12.3519   10.0108 H       2  LIG2        0.0618
    147 H          -7.4230   11.8630    9.4725 H       2  LIG2        0.0618
    148 H           4.4679    3.3679    1.5320 H       1  LIG1        0.0618
    149 H          -1.6824    1.5989    2.9375 H       2  LIG2        0.0618
    150 H          -5.6340   13.0728   10.3980 H       2  LIG2        0.0618
@<TRIPOS>BOND
     1   141    77    1
     2   124    63    1
     3    77    41   ar
     4    77    61   ar
     5   107    45    1
     6    63    45   ar
     7    63    58   ar
     8   103    41    1
     9   122    61    1
    10   119    58    1
    11    45    57   ar
    12    41    21   ar
    13    61    26   ar
    14    58    19   ar
    15   125    64    1
    16    57   118    1
    17    57    67   ar
    18    21    64    1
    19    21    80   ar
    20    26    91    1
    21    26    80   ar
    22    19    67   ar
    23    19    46    1
    24   139    75    1
    25   148    84    1
    26    64   126    1
    27    64    14    1
    28   108    46    1
    29    80   144    1
    30    67   129    1
    31    93    29    1
    32    75    84   ar
    33    75    56   ar
    34    46    14    1
    35    46   109    1
    36    92    29    1
    37    84    30   ar
    38    14     5    1
    39    29    56    1
    40    29    13    1
    41    56    52   ar
    42   149    85    1
    43   134    71    1
    44   138    74    1
    45    30    94    1
    46    30    40   ar
    47   105    43    1
    48    74    43   ar
    49    74    65   ar
    50    43    44   ar
    51    85    71   ar
    52    85    47   ar
    53    13     5    1
    54    13    70    1
    55    71    24   ar
    56    10    27    2
    57   127    65    1
    58    65    53   ar
    59    52    40   ar
    60    52   115    1
    61     5     8    2
    62     5    16    1
    63    44   106    1
    64    44    51   ar
    65    40   102    1
    66    53    51   ar
    67    53    70    1
    68    51   114    1
    69   110    47    1
    70    47    25   ar
    71    24     4    1
    72    24    39   ar
    73    27    16   am
    74    27    33    1
    75    70   132    1
    76    70   133    1
    77    16    87    1
    78     2    35    1
    79    25    39   ar
    80    25     3    1
    81    39    18    1
    82    33    35   ar
    83    33    20   ar
    84    88    11    1
    85    35    23   ar
    86     1    20    1
    87   117    54    1
    88    20    60   ar
    89    95    31    1
    90    11    18   am
    91    11     6    1
    92    18     9    2
    93   116    54    1
    94    23    90    1
    95    23    73   ar
    96     7     6    2
    97    54    15    1
    98    54    55    1
    99   104    42    1
   100    31    42   ar
   101    31    66   ar
   102    60    73   ar
   103    60   121    1
   104   128    66    1
   105    42    38   ar
   106     6    15    1
   107     6    12    1
   108    73   137    1
   109    66    50   ar
   110   143    79    1
   111    15    37    1
   112    55    79   ar
   113    55    69   ar
   114    79    83   ar
   115   131    69    1
   116   136    72    1
   117    69    82   ar
   118    38    37    1
   119    38    32   ar
   120    50    32   ar
   121    50   113    1
   122   111    48    1
   123    83   147    1
   124    83    86   ar
   125    37   101    1
   126    37   100    1
   127    12    72    1
   128    12    36    1
   129    32    96    1
   130    82    86   ar
   131    82   146    1
   132   142    78    1
   133    72   135    1
   134    72    17    1
   135    86   150    1
   136    48    78   ar
   137    48    28   ar
   138   130    68    1
   139    78    34   ar
   140    99    36    1
   141    36    28    1
   142    36    98    1
   143    28    59   ar
   144    17    68   ar
   145    17    49   ar
   146    68    62   ar
   147    34    97    1
   148    34    22   ar
   149   112    49    1
   150    49    81   ar
   151    59    22   ar
   152    59   120    1
   153    62   123    1
   154    62    76   ar
   155    22    89    1
   156    81    76   ar
   157    81   145    1
   158    76   140    1
