@<TRIPOS>MOLECULE
?
 68 76 0 0 0
SMALL
GASTEIGER

@<TRIPOS>ATOM
      1 C           4.3209    0.7524   11.3330 C.ar    1  LIG1       -0.0129
      2 C           4.5238   -0.4802   10.6389 C.ar    1  LIG1       -0.0537
      3 H           3.9639   -0.6999    9.9298 H       1  LIG1        0.0624
      4 C           5.5177   -1.3406   10.9924 C.ar    1  LIG1       -0.0612
      5 H           5.6287   -2.1310   10.5144 H       1  LIG1        0.0618
      6 C           6.3798   -1.0545   12.0676 C.ar    1  LIG1       -0.0612
      7 H           7.0632   -1.6449   12.2888 H       1  LIG1        0.0618
      8 C           6.2093    0.0759   12.7705 C.ar    1  LIG1       -0.0540
      9 H           6.7689    0.2467   13.4931 H       1  LIG1        0.0624
     10 C           5.2006    1.0180   12.4442 C.ar    1  LIG1       -0.0170
     11 C           5.0184    2.1857   13.1814 C.ar    1  LIG1       -0.0463
     12 H           5.5716    2.3441   13.9125 H       1  LIG1        0.0630
     13 C           4.0434    3.1227   12.8674 C.ar    1  LIG1       -0.0170
     14 C           3.1666    2.8797   11.7573 C.ar    1  LIG1       -0.0129
     15 C           3.2983    1.6719   11.0166 C.ar    1  LIG1       -0.0159
     16 C           2.2063    3.8963   11.4826 C.ar    1  LIG1       -0.0537
     17 H           1.6370    3.7905   10.7540 H       1  LIG1        0.0624
     18 C           2.0906    5.0129   12.2425 C.ar    1  LIG1       -0.0612
     19 H           1.4414    5.6456   12.0347 H       1  LIG1        0.0618
     20 C           2.9464    5.2230   13.3450 C.ar    1  LIG1       -0.0612
     21 H           2.8548    5.9871   13.8670 H       1  LIG1        0.0618
     22 C           3.8929    4.3174   13.6375 C.ar    1  LIG1       -0.0540
     23 H           4.4624    4.4706   14.3566 H       1  LIG1        0.0624
     24 C           2.3176    1.4077    9.9114 C.3     1  LIG1        0.0632
     25 C           0.9799    1.4369   10.1593 C.2     1  LIG1       -0.0299
     26 C           0.3070    1.3603   11.4896 C.ar    1  LIG1       -0.0159
     27 C           0.7996    1.0764   12.7608 C.ar    1  LIG1       -0.0540
     28 H           1.7118    0.9458   12.8920 H       1  LIG1        0.0624
     29 C          -0.0761    0.9925   13.8218 C.ar    1  LIG1       -0.0612
     30 H           0.2500    0.8101   14.6726 H       1  LIG1        0.0618
     31 C          -1.4296    1.1749   13.6352 C.ar    1  LIG1       -0.0612
     32 H          -2.0055    1.1202   14.3628 H       1  LIG1        0.0618
     33 C          -1.9425    1.4384   12.3793 C.ar    1  LIG1       -0.0537
     34 H          -2.8564    1.5522   12.2537 H       1  LIG1        0.0624
     35 C          -1.0688    1.5289   11.3130 C.ar    1  LIG1       -0.0135
     36 C          -1.3375    1.7471    9.8953 C.2     1  LIG1       -0.0242
     37 C          -2.5283    2.0704    9.2638 C.2     1  LIG1       -0.0568
     38 H          -3.3157    2.1514    9.7501 H       1  LIG1        0.0621
     39 C          -2.5217    2.2696    7.9031 C.2     1  LIG1       -0.0617
     40 H          -3.3131    2.4885    7.4654 H       1  LIG1        0.0618
     41 C          -1.3475    2.1470    7.1762 C.2     1  LIG1       -0.0645
     42 H          -1.3613    2.2820    6.2570 H       1  LIG1        0.0615
     43 C          -0.1581    1.8259    7.8023 C.2     1  LIG1       -0.0681
     44 H           0.6240    1.7420    7.3064 H       1  LIG1        0.0584
     45 C          -0.1380    1.6303    9.1802 C.3     1  LIG1        0.0544
     46 C           2.8210    1.1275    8.5272 C.ar    1  LIG1       -0.0159
     47 C           2.4122   -0.0759    7.8868 C.ar    1  LIG1       -0.0129
     48 C           1.6079   -1.0742    8.5133 C.ar    1  LIG1       -0.0537
     49 H           1.3707   -0.9677    9.4072 H       1  LIG1        0.0624
     50 C           1.1790   -2.1733    7.8449 C.ar    1  LIG1       -0.0612
     51 H           0.6502   -2.8002    8.2834 H       1  LIG1        0.0618
     52 C           1.5267   -2.3762    6.4917 C.ar    1  LIG1       -0.0612
     53 H           1.2005   -3.1162    6.0318 H       1  LIG1        0.0618
     54 C           2.3339   -1.4939    5.8676 C.ar    1  LIG1       -0.0540
     55 H           2.5768   -1.6457    4.9825 H       1  LIG1        0.0624
     56 C           2.8244   -0.3335    6.5344 C.ar    1  LIG1       -0.0170
     57 C           3.6735    0.5648    5.8988 C.ar    1  LIG1       -0.0463
     58 H           3.9524    0.3824    5.0300 H       1  LIG1        0.0630
     59 C           4.1177    1.7252    6.5173 C.ar    1  LIG1       -0.0170
     60 C           3.6648    2.0346    7.8467 C.ar    1  LIG1       -0.0129
     61 C           4.0774    3.2891    8.3962 C.ar    1  LIG1       -0.0537
     62 H           3.8025    3.5205    9.2543 H       1  LIG1        0.0624
     63 C           4.8613    4.1524    7.6953 C.ar    1  LIG1       -0.0612
     64 H           5.1003    4.9669    8.0748 H       1  LIG1        0.0618
     65 C           5.3165    3.8240    6.3964 C.ar    1  LIG1       -0.0612
     66 H           5.8663    4.4144    5.9327 H       1  LIG1        0.0618
     67 C           4.9512    2.6513    5.8312 C.ar    1  LIG1       -0.0540
     68 H           5.2506    2.4455    4.9763 H       1  LIG1        0.0624
@<TRIPOS>BOND
     1    68    67    1
     2    55    54    1
     3    58    57    1
     4    67    65   ar
     5    67    59   ar
     6    54    52   ar
     7    54    56   ar
     8    57    59   ar
     9    57    56   ar
    10    66    65    1
    11    53    52    1
    12    42    41    1
    13    65    63   ar
    14    52    50   ar
    15    59    60   ar
    16    56    47   ar
    17    41    43    2
    18    41    39    1
    19    44    43    1
    20    40    39    1
    21    63    64    1
    22    63    61   ar
    23    43    45    1
    24    50    51    1
    25    50    48   ar
    26    60    61   ar
    27    60    46   ar
    28    47    48   ar
    29    47    46   ar
    30    39    37    2
    31    61    62    1
    32    48    49    1
    33    46    24    1
    34    45    36    1
    35    45    25    1
    36    37    38    1
    37    37    36    1
    38    36    35    2
    39    24    25    1
    40    24    15    1
    41     3     2    1
    42    25    26    2
    43     5     4    1
    44     2     4   ar
    45     2     1   ar
    46    17    16    1
    47     4     6   ar
    48    15     1   ar
    49    15    14   ar
    50    35    26   ar
    51    35    33   ar
    52     1    10   ar
    53    16    14   ar
    54    16    18   ar
    55    26    27   ar
    56    14    13   ar
    57    19    18    1
    58     6     7    1
    59     6     8   ar
    60    18    20   ar
    61    34    33    1
    62    33    31   ar
    63    10     8   ar
    64    10    11   ar
    65    27    28    1
    66    27    29   ar
    67     8     9    1
    68    13    11   ar
    69    13    22   ar
    70    11    12    1
    71    20    22   ar
    72    20    21    1
    73    31    29   ar
    74    31    32    1
    75    22    23    1
    76    29    30    1
