@<TRIPOS>MOLECULE
(bis) vanillic acid (bis) urea
 56 54 0 0 0
SMALL
GASTEIGER

@<TRIPOS>ATOM
      1 O           1.3518    2.3257    5.3100 O.2     1  LIG1       -0.2533
      2 O           4.8458    2.0530    5.1079 O.2     2  LIG2       -0.2533
      3 N           2.4972    1.2659    3.6696 N.am    1  LIG1       -0.3135
      4 N           0.2088    1.3680    3.5992 N.am    1  LIG1       -0.3135
      5 N           3.6937    1.6299    7.0095 N.am    2  LIG2       -0.3135
      6 N           6.0011    1.6875    7.0218 N.am    2  LIG2       -0.3135
      7 C           1.3569    1.6822    4.2310 C.2     1  LIG1        0.2945
      8 C           4.8441    1.8027    6.3596 C.2     2  LIG2        0.2945
      9 O          -0.9201    9.4595    1.2149 O.2     3  LIG3       -0.2451
     10 O          -0.3607   11.3330   -0.5211 O.3     4  LIG4       -0.4771
     11 O          -0.3127    9.6752   -2.0155 O.2     4  LIG4       -0.2451
     12 O          -0.8846    7.7673   -0.2459 O.3     3  LIG3       -0.4771
     13 O          -1.6845    7.1378    5.6923 O.3     3  LIG3       -0.4914
     14 O           0.4937   15.5766   -3.0050 O.3     4  LIG4       -0.4914
     15 O           0.7194   14.8486   -5.5974 O.3     4  LIG4       -0.5033
     16 O          -1.9809    4.6667    5.1507 O.3     3  LIG3       -0.5033
     17 C           0.3711   14.2397   -3.2876 C.ar    4  LIG4        0.1620
     18 C           0.0337   11.9188   -2.7588 C.ar    4  LIG4        0.0625
     19 C          -1.3068    7.2661    2.0249 C.ar    3  LIG3        0.0625
     20 C           0.1479   13.2516   -2.3572 C.ar    4  LIG4       -0.0023
     21 H           0.0714   13.4766   -1.4377 H       4  LIG4        0.0663
     22 C          -1.3786    7.7156    3.3447 C.ar    3  LIG3       -0.0023
     23 H          -1.2684    8.6395    3.5364 H       3  LIG3        0.0663
     24 C          -0.2223   10.8786   -1.7523 C.2     4  LIG4        0.3369
     25 C          -1.7649    5.4550    4.0798 C.ar    3  LIG3        0.1585
     26 C          -1.0306    8.2516    0.9738 C.2     3  LIG3        0.3369
     27 C           0.4884   13.9125   -4.6464 C.ar    4  LIG4        0.1585
     28 C          -1.4735    5.9188    1.7460 C.ar    3  LIG3       -0.0441
     29 H          -1.4368    5.6140    0.8473 H       3  LIG3        0.0627
     30 C          -1.6076    6.8274    4.3671 C.ar    3  LIG3        0.1620
     31 C           0.3798   12.5874   -5.0361 C.ar    4  LIG4       -0.0157
     32 H           0.4624   12.3592   -5.9551 H       4  LIG4        0.0655
     33 C           0.1529   11.5930   -4.0996 C.ar    4  LIG4       -0.0441
     34 H           0.0785   10.6870   -4.3762 H       4  LIG4        0.0627
     35 C          -1.6932    5.0147    2.7735 C.ar    3  LIG3       -0.0157
     36 H          -1.7944    4.0906    2.5779 H       3  LIG3        0.0655
     37 C           0.4457   15.9552   -1.6307 C.3     4  LIG4        0.0790
     38 H          -0.4395   15.7467   -1.2649 H       4  LIG4        0.0660
     39 H           0.6132   16.9176   -1.5519 H       4  LIG4        0.0660
     40 H           1.1301   15.4622   -1.1312 H       4  LIG4        0.0660
     41 C          -1.6251    8.5221    6.0434 C.3     3  LIG3        0.0790
     42 H          -0.7547    8.8881    5.7808 H       3  LIG3        0.0660
     43 H          -1.7404    8.6181    7.0112 H       3  LIG3        0.0660
     44 H          -2.3380    9.0080    5.5795 H       3  LIG3        0.0660
     45 H          -0.5552    1.5392    3.9856 H       1  LIG1        0.1465
     46 H           2.5163    0.7779    2.9114 H       1  LIG1        0.1465
     47 H           0.2536    0.9169    2.8634 H       1  LIG1        0.1465
     48 H           3.2227    1.5211    4.0216 H       1  LIG1        0.1465
     49 H           6.7225    1.9590    6.5980 H       2  LIG2        0.1465
     50 H           5.9962    1.6450    7.8990 H       2  LIG2        0.1465
     51 H           2.9366    1.8556    6.5725 H       2  LIG2        0.1465
     52 H          -2.0692    3.9048    4.9741 H       3  LIG3        0.2923
     53 H           0.7869   15.6138   -5.2715 H       4  LIG4        0.2923
     54 H           3.6821    1.5069    7.8780 H       2  LIG2        0.1465
     55 H          -0.7068    8.4871   -0.8353 H       3  LIG3        0.2954
     56 H          -0.5568   10.6021    0.1127 H       4  LIG4        0.2954
@<TRIPOS>BOND
     1    32    31    1
     2    15    53    1
     3    15    27    1
     4    31    27   ar
     5    31    33   ar
     6    27    17   ar
     7    34    33    1
     8    33    18   ar
     9    17    14    1
    10    17    20   ar
    11    14    37    1
    12    18    20   ar
    13    18    24    1
    14    20    21    1
    15    11    24    2
    16    24    10    1
    17    37    39    1
    18    37    38    1
    19    37    40    1
    20    55    12    1
    21    10    56    1
    22    12    26    1
    23    29    28    1
    24    26     9    2
    25    26    19    1
    26    28    19   ar
    27    28    35   ar
    28    19    22   ar
    29    36    35    1
    30    35    25   ar
    31    47     4    1
    32    46     3    1
    33    22    23    1
    34    22    30   ar
    35     4    45    1
    36     4     7   am
    37     3    48    1
    38     3     7   am
    39    25    30   ar
    40    25    16    1
    41     7     1    2
    42    30    13    1
    43    52    16    1
    44     2     8    2
    45    44    41    1
    46    13    41    1
    47    42    41    1
    48    41    43    1
    49     8     5   am
    50     8     6   am
    51    51     5    1
    52    49     6    1
    53     5    54    1
    54     6    50    1
