@<TRIPOS>MOLECULE
?
 58 61 0 0 0
SMALL
GASTEIGER

@<TRIPOS>ATOM
      1 N           4.9871   -5.4661    3.8475 N.ar    1  LIG1       -0.2632
      2 N           2.9521   -0.9632    2.9142 N.ar    1  LIG1       -0.2467
      3 N           3.7083    3.0713    0.0258 N.ar    1  LIG1       -0.2632
      4 C           4.9519   -4.6342    2.8008 C.ar    1  LIG1        0.0282
      5 H           5.4863   -4.8478    2.0452 H       1  LIG1        0.0830
      6 C           4.1865   -3.4830    2.7496 C.ar    1  LIG1       -0.0344
      7 H           4.2099   -2.9280    1.9793 H       1  LIG1        0.0639
      8 C           3.3833   -3.1423    3.8303 C.ar    1  LIG1        0.0032
      9 C           3.4047   -4.0045    4.9234 C.ar    1  LIG1       -0.0344
     10 H           2.8683   -3.8244    5.6863 H       1  LIG1        0.0639
     11 C           4.2152   -5.1254    4.8876 C.ar    1  LIG1        0.0282
     12 H           4.2246   -5.6904    5.6505 H       1  LIG1        0.0830
     13 C           2.5878   -1.8802    3.8251 C.ar    1  LIG1        0.0723
     14 C           1.5564   -1.6684    4.7323 C.ar    1  LIG1       -0.0279
     15 H           1.3166   -2.3573    5.3410 H       1  LIG1        0.0645
     16 C           0.8712   -0.4550    4.7574 C.ar    1  LIG1       -0.0138
     17 C           1.2473    0.4894    3.7956 C.ar    1  LIG1       -0.0279
     18 H           0.7990    1.3260    3.7484 H       1  LIG1        0.0645
     19 C           2.2790    0.2011    2.9088 C.ar    1  LIG1        0.0723
     20 C           3.8922    1.7527   -0.1236 C.ar    1  LIG1        0.0282
     21 H           4.3568    1.4538   -0.8963 H       1  LIG1        0.0830
     22 C           3.4487    0.7996    0.7746 C.ar    1  LIG1       -0.0344
     23 H           3.6224   -0.1216    0.6214 H       1  LIG1        0.0639
     24 C           2.7435    1.2025    1.9074 C.ar    1  LIG1        0.0032
     25 C           2.5326    2.5712    2.0672 C.ar    1  LIG1       -0.0344
     26 H           2.0500    2.8989    2.8174 H       1  LIG1        0.0639
     27 C           3.0354    3.4494    1.1186 C.ar    1  LIG1        0.0282
     28 H           2.8928    4.3786    1.2539 H       1  LIG1        0.0830
     29 C          -0.1635   -0.1679    5.7803 C.ar    1  LIG1       -0.0175
     30 C          -1.0189    0.9309    5.6647 C.ar    1  LIG1       -0.0506
     31 H          -0.9474    1.4942    4.9029 H       1  LIG1        0.0625
     32 C          -1.9648    1.2209    6.6252 C.ar    1  LIG1       -0.0194
     33 H          -2.5302    1.9772    6.5189 H       1  LIG1        0.0654
     34 C          -2.0934    0.4097    7.7498 C.ar    1  LIG1        0.1205
     35 C          -1.2586   -0.6906    7.8858 C.ar    1  LIG1       -0.0194
     36 H          -1.3392   -1.2586    8.6434 H       1  LIG1        0.0654
     37 C          -0.3079   -0.9593    6.9154 C.ar    1  LIG1       -0.0506
     38 H           0.2651   -1.7086    7.0285 H       1  LIG1        0.0625
     39 O          -3.0507    0.7777    8.6431 O.3     1  LIG1       -0.4920
     40 C          -3.2923   -0.0916    9.7604 C.3     1  LIG1        0.0896
     41 H          -2.4759   -0.1698   10.3154 H       1  LIG1        0.0696
     42 H          -3.5434   -0.9951    9.4425 H       1  LIG1        0.0696
     43 C          -4.4142    0.5044   10.5689 C.3     1  LIG1       -0.0186
     44 H          -5.1987    0.6492    9.9823 H       1  LIG1        0.0298
     45 H          -4.1307    1.3853   10.9211 H       1  LIG1        0.0298
     46 C          -4.8159   -0.3955   11.7302 C.3     1  LIG1       -0.0500
     47 H          -5.0284   -1.2972   11.3804 H       1  LIG1        0.0266
     48 H          -4.0482   -0.4852   12.3482 H       1  LIG1        0.0266
     49 C          -6.0157    0.1315   12.5045 C.3     1  LIG1       -0.0532
     50 H          -5.7862    1.0151   12.8869 H       1  LIG1        0.0265
     51 H          -6.7697    0.2613   11.8766 H       1  LIG1        0.0265
     52 C          -6.4638   -0.7866   13.6267 C.3     1  LIG1       -0.0559
     53 H          -5.6683   -1.0830   14.1364 H       1  LIG1        0.0263
     54 H          -6.8878   -1.5904   13.2345 H       1  LIG1        0.0263
     55 C          -7.4450   -0.1290   14.5822 C.3     1  LIG1       -0.0653
     56 H          -7.0214    0.6485   15.0014 H       1  LIG1        0.0230
     57 H          -7.7066   -0.7715   15.2741 H       1  LIG1        0.0230
     58 H          -8.2406    0.1601   14.0872 H       1  LIG1        0.0230
@<TRIPOS>BOND
     1    21    20    1
     2    20     3   ar
     3    20    22   ar
     4     3    27   ar
     5    23    22    1
     6    22    24   ar
     7    27    28    1
     8    27    25   ar
     9    24    25   ar
    10    24    19    1
    11     7     6    1
    12     5     4    1
    13    25    26    1
    14     6     4   ar
    15     6     8   ar
    16     4     1   ar
    17    19     2   ar
    18    19    17   ar
    19     2    13   ar
    20    18    17    1
    21    17    16   ar
    22    13     8    1
    23    13    14   ar
    24     8     9   ar
    25     1    11   ar
    26    14    16   ar
    27    14    15    1
    28    16    29    1
    29    11     9   ar
    30    11    12    1
    31    31    30    1
    32     9    10    1
    33    30    29   ar
    34    30    32   ar
    35    29    37   ar
    36    33    32    1
    37    32    34   ar
    38    37    38    1
    39    37    35   ar
    40    34    35   ar
    41    34    39    1
    42    35    36    1
    43    39    40    1
    44    42    40    1
    45    40    41    1
    46    40    43    1
    47    44    43    1
    48    43    45    1
    49    43    46    1
    50    47    46    1
    51    46    48    1
    52    46    49    1
    53    51    49    1
    54    49    50    1
    55    49    52    1
    56    54    52    1
    57    52    53    1
    58    52    55    1
    59    58    55    1
    60    55    56    1
    61    55    57    1
