@<TRIPOS>MOLECULE
?
 44 45 0 0 0
SMALL
GASTEIGER

@<TRIPOS>ATOM
      1 C           7.0533    1.3337    0.2882 C.ar    1  LIG1       -0.0484
      2 H           7.0073    1.2609    1.2148 H       1  LIG1        0.0626
      3 C           6.6792    0.2637   -0.4999 C.ar    1  LIG1       -0.0581
      4 H           6.3969   -0.5248   -0.0948 H       1  LIG1        0.0620
      5 O          12.6361    3.0285   -0.1637 O.3     1  LIG1       -0.4762
      6 H          13.4502    3.2868    0.1957 H       1  LIG1        0.2953
      7 N           9.2579    3.8379    0.6267 N.2     1  LIG1       -0.2330
      8 O           5.0813    3.6279    0.4463 O.2     1  LIG1       -0.2957
      9 C           5.7841    4.1123    4.4592 C.3     1  LIG1       -0.0590
     10 H           6.3603    3.5358    3.9521 H       1  LIG1        0.0235
     11 H           4.9630    3.6543    4.6543 H       1  LIG1        0.0235
     12 H           6.2177    4.3548    5.2804 H       1  LIG1        0.0235
     13 C           5.4869    5.3630    3.6552 C.3     1  LIG1       -0.0215
     14 C           6.7167    0.3418   -1.8771 C.ar    1  LIG1       -0.0504
     15 C           6.3066   -0.8416   -2.7202 C.3     1  LIG1       -0.0397
     16 H           6.1194   -0.5485   -3.6150 H       1  LIG1        0.0278
     17 H           5.5192   -1.2447   -2.3442 H       1  LIG1        0.0278
     18 H           7.0185   -1.4850   -2.7373 H       1  LIG1        0.0278
     19 C          10.2991    3.0919   -0.0538 C.3     1  LIG1        0.2394
     20 H          10.2659    3.2664   -1.0067 H       1  LIG1        0.1148
     21 H          10.1752    2.1402    0.0885 H       1  LIG1        0.1148
     22 C           4.5885    6.2902    4.4809 C.3     1  LIG1       -0.0590
     23 H           5.0451    6.5446    5.2866 H       1  LIG1        0.0235
     24 H           3.7753    5.8322    4.7056 H       1  LIG1        0.0235
     25 H           4.3821    7.0758    3.9692 H       1  LIG1        0.0235
     26 C           7.1555    1.5246   -2.4424 C.ar    1  LIG1       -0.0581
     27 H           7.1847    1.6003   -3.3696 H       1  LIG1        0.0620
     28 O          11.7298    4.2758    1.4384 O.2     1  LIG1       -0.2438
     29 C           4.8054    5.0090    2.3400 C.3     1  LIG1        0.0130
     30 H           4.0263    4.4658    2.5369 H       1  LIG1        0.0347
     31 H           4.4911    5.8301    1.9295 H       1  LIG1        0.0347
     32 C           5.6539    4.2722    1.3365 C.2     1  LIG1        0.1593
     33 C           7.0976    4.3952    1.4180 C.3     1  LIG1        0.1989
     34 C           7.9622    3.6242    0.5891 C.2     1  LIG1        0.2074
     35 C           7.4946    2.5123   -0.2837 C.ar    1  LIG1        0.0428
     36 C          11.6282    3.5329    0.5080 C.2     1  LIG1        0.3708
     37 C           6.7523    6.1017    3.2801 C.3     1  LIG1        0.0130
     38 H           6.5072    6.9455    2.8693 H       1  LIG1        0.0347
     39 H           7.2447    6.3032    4.0904 H       1  LIG1        0.0347
     40 C           7.6579    5.3574    2.3427 C.2     1  LIG1        0.1593
     41 C           7.5545    2.6052   -1.6622 C.ar    1  LIG1       -0.0484
     42 H           7.8596    3.3860   -2.0662 H       1  LIG1        0.0626
     43 H           9.4899    4.5261    1.1698 H       1  LIG1        0.4459
     44 O           8.8676    5.6290    2.3880 O.2     1  LIG1       -0.2957
@<TRIPOS>BOND
     1    16    15    1
     2    27    26    1
     3    18    15    1
     4    15    17    1
     5    15    14    1
     6    26    14   ar
     7    26    41   ar
     8    42    41    1
     9    14     3   ar
    10    41    35   ar
    11    20    19    1
    12     3     4    1
    13     3     1   ar
    14    35     1   ar
    15    35    34    1
    16     5     6    1
    17     5    36    1
    18    19    21    1
    19    19    36    1
    20    19     7    1
    21     1     2    1
    22     8    32    2
    23    36    28    2
    24    34     7    2
    25    34    33    1
    26     7    43    1
    27    32    33    1
    28    32    29    1
    29    33    40    1
    30    31    29    1
    31    29    30    1
    32    29    13    1
    33    40    44    2
    34    40    37    1
    35    38    37    1
    36    37    13    1
    37    37    39    1
    38    13     9    1
    39    13    22    1
    40    10     9    1
    41    25    22    1
    42     9    11    1
    43     9    12    1
    44    22    24    1
    45    22    23    1
