@<TRIPOS>MOLECULE
?
 23 23 0 0 0
SMALL
GASTEIGER

@<TRIPOS>ATOM
      1 O           7.4497    2.9248    1.1211 O.3     1  LIG1       -0.4951
      2 O           1.4047    3.4399   -0.7466 O.3     1  LIG1       -0.4786
      3 H           0.7225    3.5465   -0.3053 H       1  LIG1        0.2951
      4 O           0.7620    1.2961   -0.7193 O.2     1  LIG1       -0.2477
      5 O           2.7240    0.5351   -2.3358 O.3     1  LIG1       -0.3762
      6 H           2.2891    0.0832   -1.8066 H       1  LIG1        0.2110
      7 C           8.3336    3.9786    0.7538 C.3     1  LIG1        0.0788
      8 H           8.6727    3.8188   -0.1298 H       1  LIG1        0.0660
      9 H           9.0647    4.0135    1.3751 H       1  LIG1        0.0660
     10 H           7.8599    4.8134    0.7690 H       1  LIG1        0.0660
     11 C           4.0278    2.1943   -1.1094 C.ar    1  LIG1       -0.0082
     12 C           6.0378    3.4812   -0.7911 C.ar    1  LIG1       -0.0196
     13 H           6.6084    4.1594   -1.0725 H       1  LIG1        0.0654
     14 C           1.5325    2.1732   -1.0543 C.2     1  LIG1        0.3382
     15 C           4.3491    1.4581    0.0215 C.ar    1  LIG1       -0.0521
     16 H           3.7852    0.7717    0.2963 H       1  LIG1        0.0622
     17 C           2.7644    1.8757   -1.8879 C.3     1  LIG1        0.1766
     18 H           2.7417    2.4573   -2.6759 H       1  LIG1        0.0761
     19 C           6.3383    2.7394    0.3346 C.ar    1  LIG1        0.1201
     20 C           4.8762    3.2064   -1.4990 C.ar    1  LIG1       -0.0521
     21 H           4.6665    3.7140   -2.2498 H       1  LIG1        0.0622
     22 C           5.4878    1.7273    0.7423 C.ar    1  LIG1       -0.0196
     23 H           5.6862    1.2305    1.5031 H       1  LIG1        0.0654
@<TRIPOS>BOND
     1    18    17    1
     2     5    17    1
     3     5     6    1
     4    21    20    1
     5    17    11    1
     6    17    14    1
     7    20    11   ar
     8    20    12   ar
     9    11    15   ar
    10    13    12    1
    11    14     2    1
    12    14     4    2
    13    12    19   ar
    14     2     3    1
    15     8     7    1
    16    15    16    1
    17    15    22   ar
    18    19    22   ar
    19    19     1    1
    20    22    23    1
    21     7    10    1
    22     7     1    1
    23     7     9    1
