@<TRIPOS>MOLECULE
?
 38 35 0 0 0
SMALL
GASTEIGER

@<TRIPOS>ATOM
      1 S          13.4026    2.6677   10.5133 S.3     1  LIG1        0.1431
      2 S           7.4434    0.3120    4.0765 S.3     1  LIG1        0.1431
      3 O          12.8297    1.4230   10.9890 O.2     1  LIG1       -0.1396
      4 O          16.6366    3.0329    8.1882 O.3     2  HOH2       -0.4105
      5 H          16.4216    3.5560    7.5567 H       0  HOH0        0.2052
      6 H          16.8133    2.2696    7.8533 H       3  UNK3        0.0000
      7 H          16.0036    2.9671    8.7432 H       0  HOH0        0.2052
      8 O          13.1309    3.7801   11.4013 O.3     1  LIG1       -0.0425
      9 O           5.2307   -2.7916    5.5966 O.3     4  HOH4       -0.4105
     10 H           4.4131   -2.5955    5.3865 H       0  HOH0        0.2052
     11 H           5.5024   -3.4073    5.0586 H       0  HOH0        0.2052
     12 H           5.1936   -3.1501    6.3896 H       5  UNK5        0.0000
     13 O          14.8170    2.5418   10.2270 O.2     1  LIG1       -0.1396
     14 O          14.0425    4.8326    8.5608 O.3     1  LIG1       -0.5048
     15 H          14.3008    5.3968    7.9841 H       1  LIG1        0.2922
     16 O           7.2300   -1.1062    4.0570 O.3     1  LIG1       -0.0425
     17 O           6.2082    1.0508    3.8111 O.2     1  LIG1       -0.1396
     18 O           8.5181    0.7678    3.2159 O.2     1  LIG1       -0.1396
     19 O           5.8677   -0.1898    6.5088 O.3     1  LIG1       -0.5048
     20 H           5.5993   -0.4574    7.2581 H       1  LIG1        0.2922
     21 C          12.5538    3.0414    9.0063 C.ar    1  LIG1        0.1613
     22 C          12.9451    4.1111    8.2024 C.ar    1  LIG1        0.1442
     23 C          12.1980    4.4078    7.0641 C.ar    1  LIG1       -0.0176
     24 H          12.4521    5.1121    6.5125 H       1  LIG1        0.0655
     25 C          11.0784    3.6560    6.7541 C.ar    1  LIG1       -0.0505
     26 H          10.5840    3.8710    5.9954 H       1  LIG1        0.0625
     27 C          10.6729    2.5898    7.5438 C.ar    1  LIG1       -0.0157
     28 C          11.4377    2.2954    8.6736 C.ar    1  LIG1       -0.0230
     29 H          11.1911    1.5813    9.2155 H       1  LIG1        0.0645
     30 C           9.4408    1.8140    7.2696 C.ar    1  LIG1       -0.0157
     31 C           9.0697    1.4590    5.9741 C.ar    1  LIG1       -0.0230
     32 H           9.6162    1.6997    5.2616 H       1  LIG1        0.0645
     33 C           7.9020    0.7535    5.7294 C.ar    1  LIG1        0.1613
     34 C           7.0554    0.4151    6.7922 C.ar    1  LIG1        0.1442
     35 C           7.4185    0.7518    8.0861 C.ar    1  LIG1       -0.0176
     36 H           6.8689    0.5220    8.7998 H       1  LIG1        0.0655
     37 C           8.5926    1.4270    8.3108 C.ar    1  LIG1       -0.0505
     38 H           8.8298    1.6339    9.1863 H       1  LIG1        0.0625
@<TRIPOS>BOND
     1    18     2    2
     2    17     2    2
     3    16     2    1
     4     2    33    1
     5    11     9    1
     6    32    31    1
     7    10     9    1
     8    33    31   ar
     9    33    34   ar
    10    31    30   ar
    11    26    25    1
    12    19    34    1
    13    19    20    1
    14    24    23    1
    15    25    23   ar
    16    25    27   ar
    17    34    35   ar
    18    23    22   ar
    19    30    27    1
    20    30    37   ar
    21    27    28   ar
    22     5     4    1
    23    15    14    1
    24    35    37   ar
    25    35    36    1
    26     4     7    1
    27    22    14    1
    28    22    21   ar
    29    37    38    1
    30    28    21   ar
    31    28    29    1
    32    21     1    1
    33    13     1    2
    34     1     3    2
    35     1     8    1
