@<TRIPOS>MOLECULE
?
 31 30 0 0 0
SMALL
GASTEIGER

@<TRIPOS>ATOM
      1 O           2.4205    8.0602    8.3905 O.3     1  LIG1       -0.3652
      2 O           2.6008    4.9037    1.8919 O.3     1  LIG1       -0.3652
      3 C           2.3641    7.0153    6.2688 C.ar    1  LIG1       -0.0014
      4 C           2.3232    7.1066    4.8501 C.ar    1  LIG1       -0.0049
      5 C           2.4747    5.9345    4.0663 C.ar    1  LIG1       -0.0014
      6 C           2.6523    4.6995    4.7030 C.ar    1  LIG1       -0.0550
      7 H           2.7751    3.9113    4.1862 H       1  LIG1        0.0621
      8 C           2.6497    4.6273    6.0763 C.ar    1  LIG1       -0.0610
      9 H           2.7499    3.7826    6.4977 H       1  LIG1        0.0618
     10 C           2.5033    5.7624    6.8583 C.ar    1  LIG1       -0.0550
     11 H           2.4977    5.6843    7.8056 H       1  LIG1        0.0621
     12 C           2.2413    8.2251    7.0536 C.3     1  LIG1        0.1665
     13 C           1.4223    8.5421    9.2888 C.3     1  LIG1        0.0379
     14 H           1.5558    9.5001    9.4423 H       1  LIG1        0.0524
     15 H           1.4896    8.0614   10.1398 H       1  LIG1        0.0524
     16 H           0.5346    8.3940    8.9001 H       1  LIG1        0.0524
     17 C           2.4162    6.0519    2.6349 C.3     1  LIG1        0.1665
     18 C           1.3930    4.2085    1.5840 C.3     1  LIG1        0.0379
     19 H           0.9748    3.8974    2.4133 H       1  LIG1        0.0524
     20 H           1.5956    3.4393    1.0118 H       1  LIG1        0.0524
     21 H           0.7793    4.8111    1.1144 H       1  LIG1        0.0524
     22 C           5.5726    8.0511    5.8756 C.2     2  LIG2        0.1969
     23 F           5.5304    8.3619    7.1737 F       2  LIG2       -0.1993
     24 C           5.5075    9.0361    4.9882 C.2     2  LIG2        0.1711
     25 F           5.4016   10.2900    5.4240 F       2  LIG2       -0.2017
     26 C           5.5528    8.8129    3.5622 C.2     2  LIG2        0.0527
     27 C           5.4562    9.8257    2.6458 C.2     2  LIG2        0.1388
     28 C           5.5750    9.6147    1.2307 C.1     2  LIG2        0.1109
     29 N           5.6803    9.5089    0.1026 N.1     2  LIG2       -0.1901
     30 C           5.2720   11.2142    2.9891 C.1     2  LIG2        0.1109
     31 N           5.1244   12.3310    3.1835 N.1     2  LIG2       -0.1901
@<TRIPOS>BOND
     1    29    28    3
     2    20    18    1
     3    21    18    1
     4    28    27    1
     5    18     2    1
     6    18    19    1
     7     2    17    1
     8    17     5    1
     9    27    30    1
    10    27    26    2
    11    30    31    3
    12    26    24    1
    13     5     6   ar
    14     5     4   ar
    15     7     6    1
    16     6     8   ar
    17     4     3   ar
    18    24    25    1
    19    24    22    2
    20    22    23    1
    21     8     9    1
    22     8    10   ar
    23     3    10   ar
    24     3    12    1
    25    10    11    1
    26    12     1    1
    27     1    13    1
    28    16    13    1
    29    13    14    1
    30    13    15    1
