@<TRIPOS>MOLECULE
?
 63 64 0 0 0
SMALL
GASTEIGER

@<TRIPOS>ATOM
      1 O           6.0645    6.8786    1.8215 O.2     1  LIG1       -0.2449
      2 O           4.9901    8.7222    2.4632 O.3     1  LIG1       -0.4564
      3 O           3.0628   14.4925    5.6328 O.2     1  LIG1       -0.2449
      4 O           3.1412   12.7354    4.2591 O.3     1  LIG1       -0.4564
      5 O           4.2582   14.6832   -3.8801 O.2     1  LIG1       -0.2449
      6 O           3.7818   14.4809   -1.7128 O.3     1  LIG1       -0.4564
      7 O           6.3678    8.1706   12.4167 O.3     2  HOH2       -0.4105
      8 H           6.9459    8.5205   11.9172 H       0  HOH0        0.2052
      9 H           6.4848    7.3395   12.4406 H       0  HOH0        0.2052
     10 O           4.8014    2.7336    2.8423 O.3     3  HOH3       -0.4105
     11 H           4.8490    2.3830    3.6045 H       0  HOH0        0.2052
     12 H           4.0514    3.1010    2.7501 H       0  HOH0        0.2052
     13 N           4.7873    5.9390    6.5914 N.ar    1  LIG1       -0.2632
     14 N           1.5396   10.6071    8.4255 N.ar    1  LIG1       -0.2632
     15 N           2.3406   19.1330   -2.5608 N.ar    1  LIG1       -0.2632
     16 C           5.5135    5.2926    5.6844 C.ar    1  LIG1        0.0283
     17 H           5.8714    4.4449    5.9198 H       1  LIG1        0.0830
     18 C           5.7769    5.7784    4.4241 C.ar    1  LIG1       -0.0296
     19 H           6.2974    5.2734    3.8108 H       1  LIG1        0.0641
     20 C           5.2716    7.0150    4.0660 C.ar    1  LIG1        0.0619
     21 C           4.5438    7.7163    5.0028 C.ar    1  LIG1       -0.0296
     22 H           4.1987    8.5791    4.8037 H       1  LIG1        0.0641
     23 C           4.3281    7.1368    6.2379 C.ar    1  LIG1        0.0283
     24 H           3.8197    7.6246    6.8753 H       1  LIG1        0.0830
     25 C           5.4969    7.5091    2.6742 C.2     1  LIG1        0.3396
     26 C           5.0932    9.2048    1.1036 C.3     1  LIG1        0.1179
     27 H           4.5137    8.6626    0.5124 H       1  LIG1        0.0749
     28 H           6.0276    9.1147    0.7879 H       1  LIG1        0.0749
     29 C           4.6760   10.6395    1.0398 C.ar    1  LIG1       -0.0096
     30 C           4.3743   11.3970    2.1610 C.ar    1  LIG1       -0.0489
     31 H           4.4251   11.0044    3.0243 H       1  LIG1        0.0625
     32 C           1.6902   11.9013    8.6613 C.ar    1  LIG1        0.0283
     33 H           1.4874   12.2212    9.5326 H       1  LIG1        0.0830
     34 C           2.1237   12.8148    7.7200 C.ar    1  LIG1       -0.0296
     35 H           2.2089   13.7351    7.9374 H       1  LIG1        0.0641
     36 C           2.4285   12.3560    6.4567 C.ar    1  LIG1        0.0619
     37 C           2.2856   11.0103    6.1947 C.ar    1  LIG1       -0.0296
     38 H           2.4889   10.6593    5.3354 H       1  LIG1        0.0641
     39 C           1.8423   10.1840    7.2044 C.ar    1  LIG1        0.0283
     40 H           1.7474    9.2582    7.0152 H       1  LIG1        0.0830
     41 C           2.9060   13.3252    5.4268 C.2     1  LIG1        0.3396
     42 C           3.6981   13.5791    3.2201 C.3     1  LIG1        0.1179
     43 H           4.5264   14.0124    3.5436 H       1  LIG1        0.0749
     44 H           3.0505   14.2869    2.9758 H       1  LIG1        0.0749
     45 C           3.9987   12.7266    2.0256 C.ar    1  LIG1       -0.0096
     46 C           3.9371   13.3032    0.7665 C.ar    1  LIG1       -0.0489
     47 H           3.6778   14.2122    0.6744 H       1  LIG1        0.0625
     48 C           2.3370   18.3229   -1.5061 C.ar    1  LIG1        0.0283
     49 H           1.9748   18.6494   -0.6910 H       1  LIG1        0.0830
     50 C           2.8305   17.0361   -1.5303 C.ar    1  LIG1       -0.0296
     51 H           2.8166   16.4956   -0.7492 H       1  LIG1        0.0641
     52 C           3.3458   16.5498   -2.7177 C.ar    1  LIG1        0.0619
     53 C           3.3769   17.3872   -3.8214 C.ar    1  LIG1       -0.0296
     54 H           3.7385   17.0913   -4.6486 H       1  LIG1        0.0641
     55 C           2.8681   18.6595   -3.6862 C.ar    1  LIG1        0.0283
     56 H           2.8955   19.2334   -4.4423 H       1  LIG1        0.0830
     57 C           3.8466   15.1555   -2.8584 C.2     1  LIG1        0.3396
     58 C           4.2229   13.1116   -1.7539 C.3     1  LIG1        0.1179
     59 H           5.1271   13.0616   -2.1533 H       1  LIG1        0.0749
     60 H           3.6060   12.5768   -2.3139 H       1  LIG1        0.0749
     61 C           4.2523   12.5573   -0.3582 C.ar    1  LIG1       -0.0096
     62 C           4.6179   11.2322   -0.2156 C.ar    1  LIG1       -0.0489
     63 H           4.8325   10.7192   -0.9859 H       1  LIG1        0.0625
@<TRIPOS>BOND
     1    54    53    1
     2    56    55    1
     3     5    57    2
     4    53    55   ar
     5    53    52   ar
     6    55    15   ar
     7    57    52    1
     8    57     6    1
     9    52    50   ar
    10    15    48   ar
    11    60    58    1
    12    59    58    1
    13    58     6    1
    14    58    61    1
    15    50    48   ar
    16    50    51    1
    17    48    49    1
    18    63    62    1
    19    61    62   ar
    20    61    46   ar
    21    62    29   ar
    22    27    26    1
    23    47    46    1
    24    46    45   ar
    25    28    26    1
    26    29    26    1
    27    29    30   ar
    28    26     2    1
    29     1    25    2
    30    45    30   ar
    31    45    42    1
    32    30    31    1
    33     2    25    1
    34    25    20    1
    35    12    10    1
    36    10    11    1
    37    44    42    1
    38    42    43    1
    39    42     4    1
    40    19    18    1
    41    20    18   ar
    42    20    21   ar
    43     4    41    1
    44    18    16   ar
    45    22    21    1
    46    21    23   ar
    47    38    37    1
    48    41     3    2
    49    41    36    1
    50    16    17    1
    51    16    13   ar
    52    37    36   ar
    53    37    39   ar
    54    23    13   ar
    55    23    24    1
    56    36    34   ar
    57    40    39    1
    58    39    14   ar
    59    34    35    1
    60    34    32   ar
    61    14    32   ar
    62    32    33    1
    63     8     7    1
    64     7     9    1
