@<TRIPOS>MOLECULE
?
 28 27 0 0 0
SMALL
GASTEIGER

@<TRIPOS>ATOM
      1 O          -2.0389    0.1451    3.6976 O.3     1  HOH1       -0.2528
      2 O           0.5835    3.3270    6.8466 O.3     2  LIG2       -0.4634
      3 O          -0.8681    2.0990    5.6708 O.2     2  LIG2       -0.2432
      4 O           2.8546   -1.7162    2.5338 O.2     2  LIG2       -0.2685
      5 N           1.2042    0.6883    4.5639 N.ar    2  LIG2       -0.2355
      6 N           0.6405   -1.2936    2.8106 N.am    2  LIG2       -0.3101
      7 H           0.0556   -0.7917    3.1903 H       2  LIG2        0.1490
      8 C          -0.5323    4.0458    7.4289 C.3     2  LIG2        0.0820
      9 H          -1.0759    4.4139    6.7282 H       2  LIG2        0.0661
     10 H          -0.2024    4.7560    7.9839 H       2  LIG2        0.0661
     11 H          -1.0590    3.4441    7.9602 H       2  LIG2        0.0661
     12 C           0.2609    2.3673    5.9783 C.2     2  LIG2        0.3574
     13 C           1.4701    1.6561    5.4518 C.ar    2  LIG2        0.1484
     14 C           2.2407    0.0076    4.0654 C.ar    2  LIG2        0.1263
     15 C           1.9341   -1.0778    3.0560 C.2     2  LIG2        0.2624
     16 C           0.1896   -2.3551    1.9174 C.3     2  LIG2        0.0120
     17 H          -0.7154   -2.6051    2.1594 H       2  LIG2        0.0462
     18 H           0.7540   -3.1335    2.0455 H       2  LIG2        0.0462
     19 C           0.2146   -1.9677    0.4486 C.3     2  LIG2       -0.0360
     20 H           1.1114   -1.6902    0.2056 H       2  LIG2        0.0281
     21 H          -0.3785   -1.2142    0.3062 H       2  LIG2        0.0281
     22 C           3.5638    0.2352    4.4410 C.ar    2  LIG2       -0.0311
     23 H           4.2557   -0.2683    4.0777 H       2  LIG2        0.0640
     24 C           3.8198    1.2295    5.3661 C.ar    2  LIG2       -0.0574
     25 H           4.6887    1.4000    5.6455 H       2  LIG2        0.0619
     26 C           2.7648    1.9672    5.8727 C.ar    2  LIG2       -0.0292
     27 H           2.9144    2.6550    6.4797 H       2  LIG2        0.0641
     28 H          -1.6085    0.6618    4.2153 H       0  HOH0        0.2528
@<TRIPOS>BOND
     1    20    19    1
     2    21    19    1
     3    19    16    1
     4    16    18    1
     5    16    17    1
     6    16     6    1
     7     4    15    2
     8     6    15   am
     9     6     7    1
    10    15    14    1
    11     1    28    1
    12    14    22   ar
    13    14     5   ar
    14    23    22    1
    15    22    24   ar
    16     5    13   ar
    17    24    25    1
    18    24    26   ar
    19    13    26   ar
    20    13    12    1
    21     3    12    2
    22    26    27    1
    23    12     2    1
    24     9     8    1
    25     2     8    1
    26     8    11    1
    27     8    10    1
