@<TRIPOS>MOLECULE
?
 45 46 0 0 0
SMALL
GASTEIGER

@<TRIPOS>ATOM
      1 O           4.9070    3.6598    9.7124 O.3     1  LIG1       -0.4566
      2 O           3.7516    1.5909    7.5147 O.3     1  LIG1       -0.4553
      3 O           3.9302   -1.1307    8.5524 O.3     1  LIG1       -0.4610
      4 O           4.9279    0.8185   10.8349 O.3     1  LIG1       -0.3290
      5 O           3.4789    0.6703   12.6605 O.3     1  LIG1       -0.4183
      6 O           2.4349    4.9304   11.9683 O.2     1  LIG1       -0.2754
      7 O           5.3680    2.5218    6.2501 O.2     1  LIG1       -0.2512
      8 O           5.1422   -2.4147    9.9689 O.2     1  LIG1       -0.2512
      9 O           3.4416    4.7493    8.3690 O.2     1  LIG1       -0.2512
     10 O           1.4571    1.1360   13.5153 O.2     1  LIG1       -0.2257
     11 N           2.7485    2.7708   12.4671 N.am    1  LIG1       -0.1948
     12 C           3.8491    2.8361   10.2329 C.3     1  LIG1        0.1575
     13 H           2.9633    3.1632    9.9707 H       1  LIG1        0.0783
     14 C           2.0069    3.9623   12.5603 C.2     1  LIG1        0.2218
     15 C           4.0648    1.3795    9.8304 C.3     1  LIG1        0.1414
     16 H           3.2046    0.9106    9.8469 H       1  LIG1        0.0674
     17 C           4.2149    2.2630    6.4195 C.2     1  LIG1        0.3044
     18 C           5.0860   -0.3126    8.2348 C.3     1  LIG1        0.1319
     19 H           5.3351   -0.4397    7.3068 H       1  LIG1        0.0736
     20 H           5.8373   -0.5720    8.7906 H       1  LIG1        0.0736
     21 C           3.0781    2.6058    5.5117 C.3     1  LIG1        0.0332
     22 H           3.4116    3.0799    4.7468 H       1  LIG1        0.0342
     23 H           2.4493    3.1580    5.9814 H       1  LIG1        0.0342
     24 H           2.6435    1.7994    5.2238 H       1  LIG1        0.0342
     25 C           4.5788    1.3941   12.0521 C.3     1  LIG1        0.2296
     26 H           5.3498    1.4389   12.6560 H       1  LIG1        0.1079
     27 C           4.0207    2.7902   11.7628 C.3     1  LIG1        0.1384
     28 H           4.6122    3.4997   12.0899 H       1  LIG1        0.0607
     29 C           5.7765    5.3210    8.3175 C.3     1  LIG1        0.0332
     30 H           5.5284    5.9701    7.6550 H       1  LIG1        0.0342
     31 H           6.4063    4.7031    7.9389 H       1  LIG1        0.0342
     32 H           6.1777    5.7669    9.0678 H       1  LIG1        0.0342
     33 C           2.4513    1.5160   12.9498 C.2     1  LIG1        0.4120
     34 C           0.7896    3.9644   13.4163 C.3     1  LIG1        0.0129
     35 H           0.3816    4.8334   13.3905 H       1  LIG1        0.0323
     36 H           1.0329    3.7519   14.3197 H       1  LIG1        0.0323
     37 H           0.1677    3.3101   13.0901 H       1  LIG1        0.0323
     38 C           4.0766   -2.1036    9.4825 C.2     1  LIG1        0.3041
     39 C           4.7397    1.1419    8.4816 C.3     1  LIG1        0.1664
     40 H           5.5470    1.6920    8.4126 H       1  LIG1        0.0796
     41 C           2.7642   -2.7058    9.8279 C.3     1  LIG1        0.0332
     42 H           2.8897   -3.3903   10.4889 H       1  LIG1        0.0342
     43 H           2.3708   -3.0892    9.0398 H       1  LIG1        0.0342
     44 H           2.1825   -2.0265   10.1770 H       1  LIG1        0.0342
     45 C           4.5681    4.5844    8.7678 C.2     1  LIG1        0.3043
@<TRIPOS>BOND
     1    22    21    1
     2    24    21    1
     3    21    23    1
     4    21    17    1
     5     7    17    2
     6    17     2    1
     7    19    18    1
     8     2    39    1
     9    30    29    1
    10    31    29    1
    11    18    39    1
    12    18     3    1
    13    18    20    1
    14    29    45    1
    15    29    32    1
    16     9    45    2
    17    40    39    1
    18    39    15    1
    19     3    38    1
    20    45     1    1
    21    43    41    1
    22    38    41    1
    23    38     8    2
    24     1    12    1
    25    41    44    1
    26    41    42    1
    27    15    16    1
    28    15    12    1
    29    15     4    1
    30    13    12    1
    31    12    27    1
    32     4    25    1
    33    27    25    1
    34    27    28    1
    35    27    11    1
    36     6    14    2
    37    25    26    1
    38    25     5    1
    39    11    14   am
    40    11    33   am
    41    14    34    1
    42     5    33    1
    43    33    10    2
    44    37    34    1
    45    35    34    1
    46    34    36    1
