@<TRIPOS>MOLECULE
2-(Methylamino)acetic acid
 13 12 0 0 0
SMALL
GASTEIGER

@<TRIPOS>ATOM
      1 N           3.2340    4.4427    4.4825 N.4     1  LIG1        0.2329
      2 H           3.9346    4.7463    3.9863 H       1  LIG1        0.2016
      3 H           2.9685    5.1004    5.0702 H       1  LIG1        0.2016
      4 C           4.5196    3.5181    6.3967 C.2     1  LIG1        0.3996
      5 O           4.8051    2.5199    7.1317 O.co2   1  LIG1       -0.2403
      6 C           3.6385    3.2061    5.1914 C.3     1  LIG1        0.0694
      7 H           4.1329    2.6170    4.5679 H       1  LIG1        0.0933
      8 H           2.8296    2.7213    5.4932 H       1  LIG1        0.0933
      9 O           4.8961    4.6872    6.5717 O.co2   1  LIG1       -0.2403
     10 C           2.1270    4.2167    3.5158 C.3     1  LIG1       -0.0443
     11 H           2.3870    3.5188    2.8793 H       1  LIG1        0.0777
     12 H           1.9416    5.0482    3.0309 H       1  LIG1        0.0777
     13 H           1.3227    3.9346    4.0001 H       1  LIG1        0.0777
@<TRIPOS>BOND
     1    11    10    1
     2    12    10    1
     3    10    13    1
     4    10     1    1
     5     2     1    1
     6     1     3    1
     7     1     6    1
     8     7     6    1
     9     6     8    1
    10     6     4    1
    11     4     9   ar
    12     4     5   ar
