@<TRIPOS>MOLECULE
?
 40 42 0 0 0
SMALL
GASTEIGER

@<TRIPOS>ATOM
      1 C           3.2112   -5.0527   12.1683 C.ar    1  LIG1       -0.0611
      2 H           2.9951   -5.7086   12.7904 H       1  LIG1        0.0618
      3 N           1.2837    0.0701    9.8430 N.am    1  LIG1       -0.2023
      4 H           1.0471    0.5282   10.5306 H       1  LIG1        0.1776
      5 N           1.9125   -1.1317   10.0143 N.2     1  LIG1       -0.1775
      6 C           1.8431   -0.8037   12.4885 C.ar    1  LIG1        0.0912
      7 C           2.1616   -1.5332   11.2262 C.2     1  LIG1        0.1142
      8 O           1.3033   -0.0838    7.5715 O.2     1  LIG1       -0.2684
      9 N           0.8964    0.1502   12.4215 N.ar    1  LIG1       -0.2534
     10 C           1.0277    0.5490    8.5911 C.2     1  LIG1        0.2650
     11 C           3.8258   -3.1263   10.3034 C.ar    1  LIG1       -0.0524
     12 H           4.0361   -2.4832    9.6647 H       1  LIG1        0.0624
     13 C           0.5233    2.7503    9.6870 C.ar    1  LIG1       -0.0478
     14 H           1.0698    2.4980   10.3955 H       1  LIG1        0.0626
     15 C           0.3793    1.8799    8.5985 C.ar    1  LIG1        0.0589
     16 C           2.8779   -2.8357   11.2796 C.ar    1  LIG1        0.0040
     17 C          -0.4102    2.2996    7.5085 C.ar    1  LIG1        0.0368
     18 C           2.5856   -3.8145   12.2212 C.ar    1  LIG1       -0.0524
     19 H           1.9659   -3.6384   12.8924 H       1  LIG1        0.0624
     20 N          -0.5092    1.5488    6.3638 N.pl3   1  LIG1       -0.3574
     21 H          -1.1685    1.7526    5.8449 H       1  LIG1        0.1423
     22 H          -0.0616    0.7701    6.3958 H       1  LIG1        0.1423
     23 C           0.6002    0.8411   13.5251 C.ar    1  LIG1        0.0283
     24 H          -0.0596    1.4942   13.4719 H       1  LIG1        0.0830
     25 C           2.5241   -1.0478   13.6733 C.ar    1  LIG1       -0.0341
     26 H           3.1882   -1.6966   13.7102 H       1  LIG1        0.0639
     27 C           1.2171    0.6372   14.7313 C.ar    1  LIG1       -0.0436
     28 H           0.9745    1.1289   15.4821 H       1  LIG1        0.0633
     29 C          -1.0874    3.5226    7.6028 C.ar    1  LIG1       -0.0403
     30 H          -1.6464    3.7882    6.9089 H       1  LIG1        0.0636
     31 C          -0.9436    4.3375    8.6957 C.ar    1  LIG1       -0.0600
     32 H          -1.4053    5.1441    8.7358 H       1  LIG1        0.0618
     33 C          -0.1149    3.9652    9.7410 C.ar    1  LIG1       -0.0609
     34 H           0.0077    4.5303   10.4699 H       1  LIG1        0.0618
     35 C           4.1527   -5.3115   11.1944 C.ar    1  LIG1       -0.0617
     36 H           4.5786   -6.1381   11.1663 H       1  LIG1        0.0618
     37 C           4.4589   -4.3500   10.2673 C.ar    1  LIG1       -0.0611
     38 H           5.0961   -4.5238    9.6120 H       1  LIG1        0.0618
     39 C           2.1991   -0.3113   14.7993 C.ar    1  LIG1       -0.0583
     40 H           2.6483   -0.4608   15.6001 H       1  LIG1        0.0619
@<TRIPOS>BOND
     1    21    20    1
     2    20    22    1
     3    20    17    1
     4    30    29    1
     5    17    29   ar
     6    17    15   ar
     7     8    10    2
     8    29    31   ar
     9    10    15    1
    10    10     3   am
    11    15    13   ar
    12    31    32    1
    13    31    33   ar
    14    38    37    1
    15    12    11    1
    16    13    33   ar
    17    13    14    1
    18    33    34    1
    19     3     5    1
    20     3     4    1
    21     5     7    2
    22    37    11   ar
    23    37    35   ar
    24    11    16   ar
    25    36    35    1
    26    35     1   ar
    27     7    16    1
    28     7     6    1
    29    16    18   ar
    30     1    18   ar
    31     1     2    1
    32    18    19    1
    33     9     6   ar
    34     9    23   ar
    35     6    25   ar
    36    24    23    1
    37    23    27   ar
    38    25    26    1
    39    25    39   ar
    40    27    39   ar
    41    27    28    1
    42    39    40    1
