@<TRIPOS>MOLECULE
?
 56 60 0 0 0
SMALL
GASTEIGER

@<TRIPOS>ATOM
      1 C           7.0658    5.2599    3.9791 C.ar    1  LIG1       -0.0571
      2 H           6.3009    4.7402    4.0754 H       1  LIG1        0.0621
      3 C           8.2790    4.6520    3.7048 C.ar    1  LIG1       -0.0615
      4 H           8.3227    3.7270    3.6187 H       1  LIG1        0.0618
      5 C           9.4120    5.4047    3.5606 C.ar    1  LIG1       -0.0617
      6 H          10.2261    4.9925    3.3816 H       1  LIG1        0.0618
      7 C           9.3443    6.7667    3.6812 C.ar    1  LIG1       -0.0615
      8 H          10.1115    7.2806    3.5786 H       1  LIG1        0.0618
      9 C           8.1340    7.3797    3.9558 C.ar    1  LIG1       -0.0571
     10 H           8.0966    8.3053    4.0370 H       1  LIG1        0.0621
     11 C           6.9815    6.6324    4.1106 C.ar    1  LIG1       -0.0297
     12 C           5.6745    7.2986    4.4620 C.3     1  LIG1        0.0449
     13 H           5.3719    6.9609    5.3199 H       1  LIG1        0.0518
     14 H           5.8256    8.2523    4.5582 H       1  LIG1        0.0518
     15 C           3.6320    6.1618    3.6089 C.2     1  LIG1        0.2499
     16 C           2.7147    6.2382    2.3487 C.3     1  LIG1        0.1594
     17 C           3.4183    7.2914    1.5236 C.ar    1  LIG1        0.0078
     18 C           3.1877    7.7505    0.2444 C.ar    1  LIG1       -0.0542
     19 H           2.4838    7.4135   -0.2597 H       1  LIG1        0.0622
     20 C           4.0286    8.7273   -0.2768 C.ar    1  LIG1       -0.0613
     21 H           3.8788    9.0548   -1.1348 H       1  LIG1        0.0618
     22 C           5.0794    9.2127    0.4652 C.ar    1  LIG1       -0.0600
     23 H           5.6216    9.8760    0.1028 H       1  LIG1        0.0618
     24 C           5.3514    8.7415    1.7321 C.ar    1  LIG1       -0.0399
     25 H           6.0675    9.0704    2.2277 H       1  LIG1        0.0636
     26 C           4.5168    7.7604    2.2373 C.ar    1  LIG1        0.0424
     27 C           0.5425    5.2559    2.7288 C.3     1  LIG1        0.0445
     28 H           0.3789    4.8928    3.6239 H       1  LIG1        0.0515
     29 C          -0.7878    5.6484    2.0760 C.3     1  LIG1       -0.0318
     30 H          -0.7775    5.4628    1.1243 H       1  LIG1        0.0284
     31 H          -1.5307    5.1763    2.4839 H       1  LIG1        0.0284
     32 C          -0.8737    7.1326    2.3415 C.3     1  LIG1       -0.0384
     33 H          -1.2036    7.3107    3.2352 H       1  LIG1        0.0278
     34 H          -1.4490    7.5723    1.6960 H       1  LIG1        0.0278
     35 C           0.5639    7.5826    2.1888 C.3     1  LIG1        0.0011
     36 H           0.8039    7.6720    1.2533 H       1  LIG1        0.0427
     37 H           0.7139    8.4299    2.6356 H       1  LIG1        0.0427
     38 C           1.4301    4.3179    1.9511 C.2     1  LIG1        0.0661
     39 C           0.9881    2.9522    1.6087 C.2     1  LIG1        0.3370
     40 C           1.6736    0.7622    1.0887 C.3     1  LIG1        0.0820
     41 H           1.0758    0.4433    1.7692 H       1  LIG1        0.0661
     42 H           2.4769    0.2377    1.0964 H       1  LIG1        0.0661
     43 H           1.2521    0.6862    0.2301 H       1  LIG1        0.0661
     44 C           2.6121    4.8728    1.6999 C.2     1  LIG1        0.0816
     45 C           3.7756    4.2762    0.9798 C.2     1  LIG1        0.3381
     46 C           4.4922    3.3657   -1.0771 C.3     1  LIG1        0.0820
     47 H           5.3620    3.7000   -0.8489 H       1  LIG1        0.0661
     48 H           4.3255    3.5183   -2.0098 H       1  LIG1        0.0661
     49 H           4.4525    2.4251   -0.8942 H       1  LIG1        0.0661
     50 N           4.6146    7.0861    3.4724 N.am    1  LIG1       -0.2646
     51 N           1.3312    6.5069    2.8287 N.3     1  LIG1       -0.2742
     52 O           3.4634    5.4216    4.5559 O.2     1  LIG1       -0.2724
     53 O           4.8332    4.0726    1.4944 O.2     1  LIG1       -0.2452
     54 O           3.4928    4.0528   -0.2907 O.3     1  LIG1       -0.4646
     55 O          -0.1554    2.6110    1.6056 O.2     1  LIG1       -0.2453
     56 O           1.9981    2.1409    1.3436 O.3     1  LIG1       -0.4646
@<TRIPOS>BOND
     1    48    46    1
     2    21    20    1
     3    46    49    1
     4    46    47    1
     5    46    54    1
     6    54    45    1
     7    20    18   ar
     8    20    22   ar
     9    19    18    1
    10    23    22    1
    11    43    40    1
    12    18    17   ar
    13    22    24   ar
    14    45    53    2
    15    45    44    1
    16    40    42    1
    17    40    56    1
    18    40    41    1
    19    30    29    1
    20    36    35    1
    21    56    39    1
    22    17    26   ar
    23    17    16    1
    24    55    39    2
    25    39    38    1
    26    34    32    1
    27    44    38    2
    28    44    16    1
    29    24    25    1
    30    24    26   ar
    31    38    27    1
    32    29    32    1
    33    29    31    1
    34    29    27    1
    35    35    32    1
    36    35    37    1
    37    35    51    1
    38    26    50    1
    39    32    33    1
    40    16    51    1
    41    16    15    1
    42    27    51    1
    43    27    28    1
    44     6     5    1
    45    50    15   am
    46    50    12    1
    47     5     7   ar
    48     5     3   ar
    49     8     7    1
    50    15    52    2
    51     4     3    1
    52     7     9   ar
    53     3     1   ar
    54     9    10    1
    55     9    11   ar
    56     1     2    1
    57     1    11   ar
    58    11    12    1
    59    12    14    1
    60    12    13    1
