@<TRIPOS>MOLECULE
C24 H21 N O5, H2 O
 54 56 0 0 0
SMALL
GASTEIGER

@<TRIPOS>ATOM
      1 O           4.8219    5.3227    4.5689 O.3     1  LIG1       -0.4494
      2 O           3.8608    3.2650    4.6158 O.2     1  LIG1       -0.2265
      3 O           8.5595    2.7629    3.5334 O.2     1  LIG1       -0.2489
      4 OXT         8.0594    0.6058    3.9015 O.3     1  LIG1       -0.4793
      5 HXT         9.0252    0.4494    3.8278 H       1  LIG1        0.2951
      6 OH          7.8776    3.6893   -2.2607 O.3     1  LIG1       -0.5068
      7 HH          8.5599    3.1638   -2.5450 H       1  LIG1        0.2921
      8 O           1.2477    3.1152    3.5673 O.3     2  HOH2       -0.4105
      9 H           1.3721    2.3069    3.1650 H       0  HOH0        0.2052
     10 H           2.0534    3.1818    4.0586 H       0  HOH0        0.2052
     11 N           6.0459    3.5419    4.0504 N.am    1  LIG1       -0.2676
     12 H           6.7264    4.1225    3.8669 H       1  LIG1        0.1529
     13 C           4.3401    6.9094    7.1139 C.ar    1  LIG1       -0.0290
     14 C           5.7233    6.7913    7.2221 C.ar    1  LIG1       -0.0573
     15 H           6.2205    6.0160    6.8345 H       1  LIG1        0.0621
     16 C           6.4257    7.7998    7.8873 C.ar    1  LIG1       -0.0614
     17 H           7.3502    7.6937    7.9608 H       1  LIG1        0.0618
     18 C           5.7727    8.8903    8.4443 C.ar    1  LIG1       -0.0612
     19 H           6.2513    9.6232    8.9029 H       1  LIG1        0.0618
     20 C           4.3869    9.0078    8.3419 C.ar    1  LIG1       -0.0537
     21 H           3.9171    9.7250    8.7260 H       1  LIG1        0.0624
     22 C           3.6922    8.0167    7.6678 C.ar    1  LIG1       -0.0137
     23 C           2.2458    7.8951    7.3988 C.ar    1  LIG1       -0.0137
     24 C           1.1824    8.7172    7.7546 C.ar    1  LIG1       -0.0537
     25 H           1.3603    9.5393    8.2662 H       1  LIG1        0.0624
     26 C          -0.0959    8.3343    7.3731 C.ar    1  LIG1       -0.0612
     27 H          -0.8202    8.8382    7.6164 H       1  LIG1        0.0618
     28 C          -0.3114    7.1503    6.6679 C.ar    1  LIG1       -0.0614
     29 H          -1.1997    6.9387    6.4361 H       1  LIG1        0.0618
     30 C           0.7503    6.3168    6.3240 C.ar    1  LIG1       -0.0573
     31 H           0.6076    5.4347    5.8291 H       1  LIG1        0.0621
     32 C           2.0302    6.6967    6.6986 C.ar    1  LIG1       -0.0290
     33 C           3.3462    5.9950    6.4184 C.3     1  LIG1        0.0446
     34 H           3.3772    5.0273    6.8270 H       1  LIG1        0.0431
     35 C           3.5508    5.9285    4.9074 C.3     1  LIG1        0.1048
     36 H           2.7723    5.4228    4.5185 H       1  LIG1        0.0707
     37 H           3.5809    6.8908    4.5203 H       1  LIG1        0.0707
     38 C           4.8311    3.9835    4.4293 C.2     0  ACE0        0.4010
     39 CA          6.2633    2.1296    3.8173 C.3     1  LIG1        0.1270
     40 HA          5.9132    1.5459    4.5780 H       1  LIG1        0.0618
     41 C           7.7582    1.8743    3.7451 C.2     1  LIG1        0.3257
     42 CB          5.5961    1.6172    2.5113 C.3     1  LIG1        0.0013
     43 HB1         4.6592    1.8455    2.6437 H       1  LIG1        0.0337
     44 HB2         5.6554    0.6232    2.4947 H       1  LIG1        0.0337
     45 CG          6.1985    2.1727    1.2466 C.ar    1  LIG1       -0.0449
     46 CD2         5.8473    3.4256    0.7514 C.ar    1  LIG1       -0.0551
     47 HD2         5.1521    3.9967    1.2232 H       1  LIG1        0.0621
     48 CE2         6.4259    3.9302   -0.4113 C.ar    1  LIG1       -0.0199
     49 HE2         6.2408    4.8056   -0.7447 H       1  LIG1        0.0654
     50 CZ          7.3520    3.1596   -1.0973 C.ar    1  LIG1        0.1169
     51 CE1         7.7091    1.9043   -0.6393 C.ar    1  LIG1       -0.0199
     52 HE1         8.4025    1.3602   -1.1245 H       1  LIG1        0.0654
     53 CD1         7.1386    1.4255    0.5367 C.ar    1  LIG1       -0.0551
     54 HD1         7.3618    0.5333    0.8583 H       1  LIG1        0.0621
@<TRIPOS>BOND
     1     7     6    1
     2     6    50    1
     3    52    51    1
     4    50    51   ar
     5    50    48   ar
     6    49    48    1
     7    51    53   ar
     8    48    46   ar
     9    53    54    1
    10    53    45   ar
    11    46    47    1
    12    46    45   ar
    13    45    42    1
    14    44    42    1
    15    42    43    1
    16    42    39    1
    17     9     8    1
    18     3    41    2
    19     8    10    1
    20    41    39    1
    21    41     4    1
    22    39    11    1
    23    39    40    1
    24     5     4    1
    25    12    11    1
    26    11    38   am
    27    38     1    1
    28    38     2    2
    29    36    35    1
    30    37    35    1
    31     1    35    1
    32    35    33    1
    33    31    30    1
    34    30    28   ar
    35    30    32   ar
    36    33    32    1
    37    33    34    1
    38    33    13    1
    39    29    28    1
    40    28    26   ar
    41    32    23   ar
    42    15    14    1
    43    13    14   ar
    44    13    22   ar
    45    14    16   ar
    46    26    27    1
    47    26    24   ar
    48    23    22    1
    49    23    24   ar
    50    22    20   ar
    51    24    25    1
    52    16    17    1
    53    16    18   ar
    54    20    18   ar
    55    20    21    1
    56    18    19    1
