@<TRIPOS>MOLECULE
?
 110 114 0 0 0
SMALL
GASTEIGER

@<TRIPOS>ATOM
      1 C          -0.2808    5.1276   -1.8372 C.3     1  LIG1        0.0134
      2 O          -0.5867    6.6911    0.0178 O.3     1  LIG1       -0.3759
      3 C           0.4139    5.9988   -0.7407 C.3     1  LIG1        0.1328
      4 H          -0.1260    7.2446    0.4887 H       1  LIG1        0.2114
      5 H           7.6608   -0.1592    5.3664 H       1  LIG1        0.2114
      6 C           1.3028    6.9721   -1.6007 C.3     1  LIG1       -0.0088
      7 H           1.0323    7.9145   -1.4634 H       1  LIG1        0.0306
      8 H           2.2603    6.8740   -1.3709 H       1  LIG1        0.0306
      9 C           1.0355    6.5281   -3.0438 C.3     1  LIG1       -0.0317
     10 H           1.2750    7.2106   -3.7345 H       1  LIG1        0.0307
     11 C           1.7248    5.1622   -3.2368 C.3     1  LIG1       -0.0490
     12 H           2.6493    5.1738   -2.8827 H       1  LIG1        0.0268
     13 H           1.7457    4.9027   -4.1915 H       1  LIG1        0.0268
     14 C           0.8201    4.2103   -2.4161 C.3     1  LIG1       -0.0433
     15 H           0.4270    3.5102   -2.9959 H       1  LIG1        0.0272
     16 H           1.3335    3.7747   -1.6899 H       1  LIG1        0.0272
     17 C          -0.4647    6.1545   -3.0148 C.3     1  LIG1       -0.0230
     18 C          -1.4025    7.3284   -2.7294 C.3     1  LIG1       -0.0589
     19 H          -1.4849    7.8837   -3.5330 H       1  LIG1        0.0235
     20 H          -1.0381    7.8667   -1.9963 H       1  LIG1        0.0235
     21 H          -2.2858    6.9867   -2.4768 H       1  LIG1        0.0235
     22 C          -0.9457    5.5150   -4.3258 C.3     1  LIG1       -0.0589
     23 H          -1.8738    5.2174   -4.2233 H       1  LIG1        0.0235
     24 H          -0.3783    4.7459   -4.5422 H       1  LIG1        0.0235
     25 H          -0.8919    6.1735   -5.0489 H       1  LIG1        0.0235
     26 C          -1.5025    4.3750   -1.3455 C.3     1  LIG1       -0.0555
     27 H          -1.2462    3.7807   -0.6102 H       1  LIG1        0.0236
     28 H          -1.8761    3.8434   -2.0792 H       1  LIG1        0.0236
     29 H          -2.1752    5.0142   -1.0299 H       1  LIG1        0.0236
     30 C           1.2411    5.2297    0.2158 C.1     1  LIG1       -0.0618
     31 C           1.9478    4.7145    1.0355 C.1     1  LIG1       -0.0634
     32 C           2.8671    4.1098    1.9691 C.ar    1  LIG1        0.0251
     33 C           2.4829    3.0491    2.7938 C.ar    1  LIG1       -0.0452
     34 H           1.5916    2.7224    2.7557 H       1  LIG1        0.0630
     35 C           3.3899    2.4688    3.6658 C.ar    1  LIG1       -0.0452
     36 H           3.1187    1.7440    4.2164 H       1  LIG1        0.0630
     37 C           4.6977    2.9441    3.7377 C.ar    1  LIG1        0.0251
     38 C           5.0896    3.9991    2.9012 C.ar    1  LIG1       -0.0452
     39 H           5.9845    4.3171    2.9310 H       1  LIG1        0.0630
     40 C           4.1840    4.5805    2.0332 C.ar    1  LIG1       -0.0452
     41 H           4.4565    5.3015    1.4786 H       1  LIG1        0.0630
     42 C           5.6474    2.3753    4.6693 C.1     1  LIG1       -0.0634
     43 C           6.4412    1.9504    5.4639 C.1     1  LIG1       -0.0618
     44 C           7.4412    1.4142    6.4104 C.3     1  LIG1        0.1328
     45 C           8.4811    2.4876    6.8606 C.3     1  LIG1       -0.0088
     46 H           9.4050    2.1949    6.6586 H       1  LIG1        0.0306
     47 H           8.3122    3.3554    6.4156 H       1  LIG1        0.0306
     48 C           8.2521    2.5894    8.3722 C.3     1  LIG1       -0.0317
     49 H           8.9972    3.0300    8.8717 H       1  LIG1        0.0307
     50 C           6.8768    3.2394    8.5862 C.3     1  LIG1       -0.0490
     51 H           6.7540    4.0203    7.9895 H       1  LIG1        0.0268
     52 H           6.7602    3.5281    9.5261 H       1  LIG1        0.0268
     53 C           5.8908    2.0975    8.2249 C.3     1  LIG1       -0.0433
     54 H           5.3542    1.8288    9.0126 H       1  LIG1        0.0272
     55 H           5.2796    2.3727    7.4967 H       1  LIG1        0.0272
     56 C           6.8120    0.9529    7.7688 C.3     1  LIG1        0.0134
     57 C           8.0002    1.1103    8.7748 C.3     1  LIG1       -0.0230
     58 C           7.5913    0.9525   10.2519 C.3     1  LIG1       -0.0589
     59 H           7.2799    0.0371   10.4083 H       1  LIG1        0.0235
     60 H           6.8709    1.5830   10.4608 H       1  LIG1        0.0235
     61 H           8.3641    1.1377   10.8267 H       1  LIG1        0.0235
     62 C           9.1887    0.1712    8.5469 C.3     1  LIG1       -0.0589
     63 H           9.9093    0.3992    9.1699 H       1  LIG1        0.0235
     64 H           9.5102    0.2683    7.6264 H       1  LIG1        0.0235
     65 H           8.9064   -0.7556    8.6978 H       1  LIG1        0.0235
     66 C           6.1498   -0.4097    7.6897 C.3     1  LIG1       -0.0555
     67 H           5.7713   -0.6398    8.5639 H       1  LIG1        0.0236
     68 H           6.8157   -1.0820    7.4345 H       1  LIG1        0.0236
     69 H           5.4352   -0.3873    7.0204 H       1  LIG1        0.0236
     70 O           2.2822    8.9533    4.4898 O.2     2  LIG2       -0.2974
     71 C           1.2407    8.3111    4.4537 C.2     2  LIG2        0.1334
     72 C           1.2462    6.8254    4.2230 C.3     2  LIG2        0.0061
     73 H           2.1766    6.4894    4.2619 H       2  LIG2        0.0342
     74 H           0.8889    6.6316    3.3203 H       2  LIG2        0.0342
     75 C           0.3963    6.0980    5.2764 C.3     2  LIG2       -0.0438
     76 H           0.3381    5.1379    5.0406 H       2  LIG2        0.0272
     77 H           0.8419    6.1675    6.1575 H       2  LIG2        0.0272
     78 C          -1.0030    6.6704    5.3803 C.3     2  LIG2       -0.0431
     79 H          -1.4454    6.5665    4.4897 H       2  LIG2        0.0298
     80 C          -0.9193    8.1645    5.6943 C.3     2  LIG2       -0.0438
     81 H          -1.8349    8.5399    5.7323 H       2  LIG2        0.0272
     82 H          -0.5041    8.2863    6.5841 H       2  LIG2        0.0272
     83 C          -0.1073    8.9308    4.6541 C.3     2  LIG2        0.0061
     84 H          -0.5972    8.9365    3.7939 H       2  LIG2        0.0342
     85 H           0.0034    9.8687    4.9495 H       2  LIG2        0.0342
     86 C          -1.8423    5.9231    6.4123 C.3     2  LIG2       -0.0624
     87 H          -1.4286    6.0136    7.2965 H       2  LIG2        0.0232
     88 H          -1.8908    4.9758    6.1699 H       2  LIG2        0.0232
     89 H          -2.7463    6.3016    6.4336 H       2  LIG2        0.0232
     90 O           4.9014   -1.7321    1.3205 O.2     3  LIG3       -0.2974
     91 C           5.9729   -1.1497    1.3425 C.2     3  LIG3        0.1334
     92 C           7.2753   -1.8479    1.1672 C.3     3  LIG3        0.0061
     93 H           7.1124   -2.7869    0.9015 H       3  LIG3        0.0342
     94 H           7.7645   -1.8537    2.0281 H       3  LIG3        0.0342
     95 C           8.1313   -1.1562    0.0989 C.3     3  LIG3       -0.0438
     96 H           9.0224   -1.5859    0.0676 H       3  LIG3        0.0272
     97 H           7.7053   -1.2758   -0.7869 H       3  LIG3        0.0272
     98 C           8.3035    0.3359    0.3740 C.3     3  LIG3       -0.0431
     99 H           8.7564    0.4362    1.2605 H       3  LIG3        0.0298
    100 C           6.9341    0.9957    0.4680 C.3     3  LIG3       -0.0438
    101 H           6.4818    0.9331   -0.4100 H       3  LIG3        0.0272
    102 H           7.0494    1.9556    0.6834 H       3  LIG3        0.0272
    103 C           6.0547    0.3444    1.5333 C.3     3  LIG3        0.0061
    104 H           6.4262    0.5408    2.4299 H       3  LIG3        0.0342
    105 H           5.1442    0.7310    1.4883 H       3  LIG3        0.0342
    106 C           9.1830    0.9989   -0.6839 C.3     3  LIG3       -0.0624
    107 H          10.0531    0.5503   -0.7138 H       3  LIG3        0.0232
    108 H           9.3105    1.9440   -0.4570 H       3  LIG3        0.0232
    109 H           8.7491    0.9282   -1.5601 H       3  LIG3        0.0232
    110 O           8.1550    0.3670    5.7305 O.3     1  LIG1       -0.3759
@<TRIPOS>BOND
     1    25    22    1
     2    24    22    1
     3    22    23    1
     4    22    17    1
     5    13    11    1
     6    10     9    1
     7    19    18    1
     8    11     9    1
     9    11    12    1
    10    11    14    1
    11     9    17    1
    12     9     6    1
    13    17    18    1
    14    17     1    1
    15    15    14    1
    16    18    21    1
    17    18    20    1
    18    14     1    1
    19    14    16    1
    20    28    26    1
    21     1    26    1
    22     1     3    1
    23     6     7    1
    24     6     8    1
    25     6     3    1
    26   109   106    1
    27    26    29    1
    28    26    27    1
    29    97    95    1
    30     3     2    1
    31     3    30    1
    32   107   106    1
    33   106   108    1
    34   106    98    1
    35   101   100    1
    36     2     4    1
    37    96    95    1
    38    95    98    1
    39    95    92    1
    40    30    31    3
    41    98   100    1
    42    98    99    1
    43   100   102    1
    44   100   103    1
    45    93    92    1
    46    31    32    1
    47    92    91    1
    48    92    94    1
    49    90    91    2
    50    91   103    1
    51    41    40    1
    52   105   103    1
    53   103   104    1
    54    32    40   ar
    55    32    33   ar
    56    40    38   ar
    57    34    33    1
    58    33    35   ar
    59    38    39    1
    60    38    37   ar
    61    74    72    1
    62    35    37   ar
    63    35    36    1
    64    37    42    1
    65    84    83    1
    66    72    73    1
    67    72    71    1
    68    72    75    1
    69    71    70    2
    70    71    83    1
    71    79    78    1
    72    83    85    1
    73    83    80    1
    74    42    43    3
    75    76    75    1
    76    75    78    1
    77    75    77    1
    78     5   110    1
    79    78    80    1
    80    78    86    1
    81    43    44    1
    82    80    81    1
    83    80    82    1
    84   110    44    1
    85    88    86    1
    86    44    45    1
    87    44    56    1
    88    86    89    1
    89    86    87    1
    90    47    45    1
    91    46    45    1
    92    45    48    1
    93    69    66    1
    94    68    66    1
    95    55    53    1
    96    64    62    1
    97    66    56    1
    98    66    67    1
    99    56    53    1
   100    56    57    1
   101    51    50    1
   102    53    50    1
   103    53    54    1
   104    48    50    1
   105    48    57    1
   106    48    49    1
   107    62    65    1
   108    62    57    1
   109    62    63    1
   110    50    52    1
   111    57    58    1
   112    58    59    1
   113    58    60    1
   114    58    61    1
