@<TRIPOS>MOLECULE
?
 51 53 0 0 0
SMALL
GASTEIGER

@<TRIPOS>ATOM
      1 S          -0.0066    8.9522    5.3250 S.3     1  LIG1       -0.1196
      2 S          -0.5598    5.7786   10.0313 S.2     1  LIG1       -0.0934
      3 O           3.0087    7.3501    3.2831 O.2     1  LIG1       -0.2492
      4 O           2.4131    5.4817    4.3764 O.3     1  LIG1       -0.4639
      5 O          -1.1101    5.2461    3.4204 O.2     1  LIG1       -0.2492
      6 O           0.5930    5.3284    1.9440 O.3     1  LIG1       -0.4639
      7 O          -0.6111    7.7457    7.7881 O.2     1  LIG1       -0.2867
      8 C          -0.7663   12.9859    1.8357 C.ar    1  LIG1       -0.0617
      9 H          -1.0681   13.7753    1.4041 H       1  LIG1        0.0618
     10 C          -1.6715   12.1414    2.4708 C.ar    1  LIG1       -0.0615
     11 H          -2.5983   12.3532    2.4773 H       1  LIG1        0.0618
     12 C          -1.2144   10.9773    3.1012 C.ar    1  LIG1       -0.0575
     13 H          -1.8320   10.3998    3.5348 H       1  LIG1        0.0621
     14 C           0.1323   10.6644    3.0943 C.ar    1  LIG1       -0.0341
     15 C           1.0209   11.5100    2.4671 C.ar    1  LIG1       -0.0575
     16 H           1.9471   11.3008    2.4655 H       1  LIG1        0.0621
     17 C           0.5769   12.6625    1.8387 C.ar    1  LIG1       -0.0615
     18 H           1.2014   13.2337    1.4060 H       1  LIG1        0.0618
     19 C           0.6792    9.3679    3.6671 C.3     1  LIG1        0.0364
     20 H           1.6720    9.4488    3.7455 H       1  LIG1        0.0465
     21 C           0.1632    7.2346    5.0865 C.2     1  LIG1        0.0173
     22 C           0.6499    6.9097    3.6677 C.3     1  LIG1        0.1956
     23 C           0.3583    8.1522    2.8184 C.3     1  LIG1       -0.0059
     24 H           0.9185    8.1473    2.0007 H       1  LIG1        0.0298
     25 H          -0.5947    8.1653    2.5482 H       1  LIG1        0.0298
     26 C           2.1624    6.6271    3.7319 C.2     1  LIG1        0.3292
     27 C           3.8249    5.1677    4.5460 C.3     1  LIG1        0.0897
     28 H           4.2888    5.9064    5.0137 H       1  LIG1        0.0694
     29 H           4.2559    5.0311    3.6647 H       1  LIG1        0.0694
     30 C           3.8928    3.9081    5.3624 C.3     1  LIG1       -0.0306
     31 H           3.4076    3.1919    4.8995 H       1  LIG1        0.0262
     32 H           3.4850    4.0647    6.2405 H       1  LIG1        0.0262
     33 H           4.8285    3.6450    5.4804 H       1  LIG1        0.0262
     34 C          -0.0768    5.7179    3.0409 C.2     1  LIG1        0.3292
     35 C          -0.0401    4.2919    1.1307 C.3     1  LIG1        0.0897
     36 H          -0.6752    4.7013    0.4903 H       1  LIG1        0.0694
     37 H          -0.5409    3.6630    1.7093 H       1  LIG1        0.0694
     38 C           1.0438    3.5654    0.3919 C.3     1  LIG1       -0.0306
     39 H           0.6424    2.9019   -0.2068 H       1  LIG1        0.0262
     40 H           1.6301    3.1136    1.0338 H       1  LIG1        0.0262
     41 H           1.5670    4.2059   -0.1339 H       1  LIG1        0.0262
     42 C          -0.0481    6.2922    6.0202 C.2     1  LIG1       -0.0028
     43 H           0.0294    5.3802    5.7640 H       1  LIG1        0.0664
     44 C          -0.3887    6.5922    7.4020 C.2     1  LIG1        0.1934
     45 C          -0.4052    5.4563    8.3429 C.ar    1  LIG1        0.0588
     46 C          -0.4831    4.1147   10.4031 C.ar    1  LIG1       -0.0236
     47 H          -0.5149    3.7708   11.2877 H       1  LIG1        0.0693
     48 C          -0.3707    3.3357    9.2954 C.ar    1  LIG1       -0.0540
     49 H          -0.3294    2.3872    9.3243 H       1  LIG1        0.0623
     50 C          -0.3212    4.0839    8.0863 C.ar    1  LIG1       -0.0438
     51 H          -0.2420    3.7028    7.2192 H       1  LIG1        0.0630
@<TRIPOS>BOND
     1    39    38    1
     2    41    38    1
     3    38    40    1
     4    38    35    1
     5    36    35    1
     6    35    37    1
     7    35     6    1
     8     9     8    1
     9    18    17    1
    10     8    17   ar
    11     8    10   ar
    12    17    15   ar
    13     6    34    1
    14    24    23    1
    15    16    15    1
    16    15    14   ar
    17    10    11    1
    18    10    12   ar
    19    25    23    1
    20    23    19    1
    21    23    22    1
    22    34     5    2
    23    34    22    1
    24    14    12   ar
    25    14    19    1
    26    12    13    1
    27     3    26    2
    28    29    27    1
    29    19    20    1
    30    19     1    1
    31    22    26    1
    32    22    21    1
    33    26     4    1
    34     4    27    1
    35    27    28    1
    36    27    30    1
    37    31    30    1
    38    21     1    1
    39    21    42    2
    40    30    33    1
    41    30    32    1
    42    43    42    1
    43    42    44    1
    44    51    50    1
    45    44     7    2
    46    44    45    1
    47    50    45   ar
    48    50    48   ar
    49    45     2   ar
    50    48    49    1
    51    48    46   ar
    52     2    46   ar
    53    46    47    1
