@<TRIPOS>MOLECULE
?
 52 53 0 0 0
SMALL
GASTEIGER

@<TRIPOS>ATOM
      1 S           4.4523    0.0098    2.7065 S.3     1  LIG1       -0.0115
      2 N           7.3106    2.5374    3.5280 N.pl3   1  LIG1       -0.2793
      3 N           5.2698    3.1726    3.8361 N.pl3   1  LIG1       -0.3076
      4 C           6.1339    2.1795    4.0909 C.3     1  LIG1        0.1524
      5 C           9.4715    1.9664    4.5312 C.ar    1  LIG1       -0.0231
      6 C           8.5592    1.7867    3.4957 C.ar    1  LIG1        0.0423
      7 C           5.8956    0.9703    4.9035 C.3     1  LIG1        0.0592
      8 H           5.3986    1.2367    5.6927 H       1  LIG1        0.0390
      9 H           6.7568    0.6408    5.2050 H       1  LIG1        0.0390
     10 O           5.0797   -1.2445    4.9201 O.2     1  LIG1       -0.2842
     11 C           8.8147    1.0183    2.3526 C.ar    1  LIG1       -0.0231
     12 C          10.7258    1.3621    4.3853 C.ar    1  LIG1       -0.0565
     13 H          11.3624    1.4596    5.0554 H       1  LIG1        0.0621
     14 C           5.1329   -0.2249    4.2379 C.2     1  LIG1        0.2038
     15 C          11.0317    0.6216    3.2591 C.ar    1  LIG1       -0.0611
     16 H          11.8750    0.2399    3.1703 H       1  LIG1        0.0618
     17 C           3.8469    3.2351    4.2759 C.3     1  LIG1        0.0195
     18 H           3.5888    2.3542    4.6203 H       1  LIG1        0.0495
     19 C           7.1688    3.7614    2.9164 C.2     1  LIG1        0.0127
     20 H           7.8303    4.2271    2.4569 H       1  LIG1        0.0797
     21 C           5.8974    4.1632    3.1045 C.2     1  LIG1        0.0084
     22 H           5.5153    4.9546    2.8007 H       1  LIG1        0.0793
     23 C           7.8078    0.8369    1.2331 C.3     1  LIG1       -0.0197
     24 H           6.9342    1.1330    1.5635 H       1  LIG1        0.0344
     25 C           2.9748    3.5577    3.0826 C.3     1  LIG1       -0.0467
     26 H           3.0849    2.8790    2.4137 H       1  LIG1        0.0247
     27 H           3.2315    4.4082    2.7200 H       1  LIG1        0.0247
     28 H           2.0559    3.5910    3.3574 H       1  LIG1        0.0247
     29 C          10.0869    0.4465    2.2628 C.ar    1  LIG1       -0.0565
     30 H          10.3033   -0.0635    1.5167 H       1  LIG1        0.0621
     31 C           9.1829    2.8158    5.7524 C.3     1  LIG1       -0.0197
     32 H           8.2294    3.0415    5.7430 H       1  LIG1        0.0344
     33 C           3.7298    4.2409    5.3968 C.3     1  LIG1       -0.0467
     34 H           4.2967    3.9764    6.1242 H       1  LIG1        0.0247
     35 H           2.8189    4.2797    5.6974 H       1  LIG1        0.0247
     36 H           3.9986    5.1063    5.0799 H       1  LIG1        0.0247
     37 C           8.1665    1.6972    0.0262 C.3     1  LIG1       -0.0586
     38 H           8.2343    2.6158    0.2970 H       1  LIG1        0.0235
     39 H           7.4849    1.6097   -0.6432 H       1  LIG1        0.0235
     40 H           9.0080    1.4070   -0.3345 H       1  LIG1        0.0235
     41 C           9.9738    4.1199    5.6985 C.3     1  LIG1       -0.0586
     42 H           9.7821    4.5769    4.8764 H       1  LIG1        0.0235
     43 H          10.9129    3.9268    5.7453 H       1  LIG1        0.0235
     44 H           9.7239    4.6760    6.4399 H       1  LIG1        0.0235
     45 C           7.6771   -0.6267    0.8046 C.3     1  LIG1       -0.0586
     46 H           7.4428   -1.1624    1.5658 H       1  LIG1        0.0235
     47 H           8.5133   -0.9302    0.4444 H       1  LIG1        0.0235
     48 H           6.9933   -0.7043    0.1357 H       1  LIG1        0.0235
     49 C           9.4755    2.0724    7.0586 C.3     1  LIG1       -0.0586
     50 H           8.9622    1.2615    7.0878 H       1  LIG1        0.0235
     51 H           9.2385    2.6298    7.8035 H       1  LIG1        0.0235
     52 H          10.4108    1.8605    7.1042 H       1  LIG1        0.0235
@<TRIPOS>BOND
     1    39    37    1
     2    40    37    1
     3    37    38    1
     4    37    23    1
     5    48    45    1
     6    47    45    1
     7    45    23    1
     8    45    46    1
     9    23    24    1
    10    23    11    1
    11    30    29    1
    12    29    11   ar
    13    29    15   ar
    14    11     6   ar
    15    26    25    1
    16    20    19    1
    17     1    14    1
    18    27    25    1
    19    22    21    1
    20    19    21    2
    21    19     2    1
    22    25    28    1
    23    25    17    1
    24    21     3    1
    25    16    15    1
    26    15    12   ar
    27     6     2    1
    28     6     5   ar
    29     2     4    1
    30     3     4    1
    31     3    17    1
    32     4     7    1
    33    14     7    1
    34    14    10    2
    35    17    18    1
    36    17    33    1
    37    12     5   ar
    38    12    13    1
    39     5    31    1
    40    42    41    1
    41     7     9    1
    42     7     8    1
    43    36    33    1
    44    33    35    1
    45    33    34    1
    46    41    43    1
    47    41    31    1
    48    41    44    1
    49    32    31    1
    50    31    49    1
    51    49    50    1
    52    49    52    1
    53    49    51    1
