@<TRIPOS>MOLECULE
?
 41 42 0 0 0
SMALL
GASTEIGER

@<TRIPOS>ATOM
      1 O           0.9374    9.8199   12.6447 O.3     1  LIG1       -0.4574
      2 O          -1.0084   10.6255   12.0606 O.2     1  LIG1       -0.2448
      3 O           1.6497   10.5966    6.3568 O.3     1  LIG1       -0.4913
      4 O          -0.9109   10.9789    7.0375 O.3     1  LIG1       -0.5009
      5 H          -0.5551   11.0034    6.2988 H       1  LIG1        0.2924
      6 O          -1.6977   10.8242    9.5468 O.3     1  LIG1       -0.5027
      7 H          -1.8426   10.7470   10.3505 H       1  LIG1        0.2923
      8 O           2.5699    6.7351   14.0846 O.3     1  LIG1       -0.3917
      9 H           2.0714    6.2422   14.5096 H       1  LIG1        0.2098
     10 C           0.1054   10.2444   11.6956 C.2     1  LIG1        0.3434
     11 C           2.1567    9.0917   12.2575 C.3     1  LIG1        0.1097
     12 H           1.9086    8.1865   11.9752 H       1  LIG1        0.0738
     13 C           2.8309    9.7946   11.1073 C.3     1  LIG1        0.0107
     14 H           3.1917   10.6413   11.4139 H       1  LIG1        0.0349
     15 H           3.5697    9.2525   10.7877 H       1  LIG1        0.0349
     16 C           2.2858   10.1387    8.6655 C.ar    1  LIG1       -0.0120
     17 H           3.1788    9.9970    8.4479 H       1  LIG1        0.0658
     18 C           1.3656   10.4479    7.6701 C.ar    1  LIG1        0.1653
     19 C           0.0194   10.6638    7.9786 C.ar    1  LIG1        0.2016
     20 C          -0.3923   10.5795    9.2999 C.ar    1  LIG1        0.1765
     21 C           3.0074    8.9984   13.4980 C.3     1  LIG1        0.0107
     22 H           3.1100    9.8890   13.8686 H       1  LIG1        0.0326
     23 H           3.8896    8.6847   13.2424 H       1  LIG1        0.0326
     24 C           2.4644    8.0786   14.5918 C.3     1  LIG1        0.0586
     25 H           1.5184    8.2877   14.7393 H       1  LIG1        0.0594
     26 C           3.2096    8.2214   15.9077 C.3     1  LIG1       -0.0270
     27 H           3.0268    9.1052   16.2658 H       1  LIG1        0.0290
     28 H           2.8467    7.5759   16.5326 H       1  LIG1        0.0290
     29 C           4.7065    8.0358   15.8534 C.3     1  LIG1       -0.0536
     30 H           5.0874    8.7173   15.2784 H       1  LIG1        0.0263
     31 H           4.9023    7.1722   15.4581 H       1  LIG1        0.0263
     32 C           5.3779    8.1157   17.2292 C.3     1  LIG1       -0.0652
     33 H           5.2495    8.9939   17.5978 H       1  LIG1        0.0230
     34 H           6.3174    7.9414   17.1384 H       1  LIG1        0.0230
     35 H           4.9863    7.4634   17.8146 H       1  LIG1        0.0230
     36 C           3.0060   10.4535    5.9405 C.3     1  LIG1        0.0790
     37 H           3.5575   11.0686    6.4304 H       1  LIG1        0.0660
     38 H           3.0741   10.6402    5.0020 H       1  LIG1        0.0660
     39 H           3.3000    9.5550    6.1099 H       1  LIG1        0.0660
     40 C           1.8713   10.0420    9.9801 C.ar    1  LIG1       -0.0227
     41 C           0.5300   10.2534   10.3062 C.ar    1  LIG1        0.1074
@<TRIPOS>BOND
     1    38    36    1
     2    36    39    1
     3    36     3    1
     4    36    37    1
     5     5     4    1
     6     3    18    1
     7     4    19    1
     8    18    19   ar
     9    18    16   ar
    10    19    20   ar
    11    17    16    1
    12    16    40   ar
    13    20     6    1
    14    20    41   ar
    15     6     7    1
    16    40    41   ar
    17    40    13    1
    18    41    10    1
    19    15    13    1
    20    13    14    1
    21    13    11    1
    22    10     2    2
    23    10     1    1
    24    12    11    1
    25    11     1    1
    26    11    21    1
    27    23    21    1
    28    21    22    1
    29    21    24    1
    30     8     9    1
    31     8    24    1
    32    24    25    1
    33    24    26    1
    34    30    29    1
    35    31    29    1
    36    29    26    1
    37    29    32    1
    38    26    27    1
    39    26    28    1
    40    34    32    1
    41    32    33    1
    42    32    35    1
