@<TRIPOS>MOLECULE
(3,5-difluoro-4-pyridyl)bis(2,4,6-trichlorophenyl)methyl radical
 33 35 0 0 0
SMALL
GASTEIGER

@<TRIPOS>ATOM
      1 CL          6.2447    3.7235   13.7443 Cl      1  LIG1       -0.0831
      2 CL          6.0325   -1.3686   15.6311 Cl      1  LIG1       -0.0831
      3 CL          2.6958    2.3534   17.4892 Cl      1  LIG1       -0.0835
      4 CL          8.2173    2.1215   11.2147 Cl      1  LIG1       -0.0831
      5 CL          8.6459    0.9085   16.5013 Cl      1  LIG1       -0.0831
      6 CL         12.3822    3.8304   14.0654 Cl      1  LIG1       -0.0835
      7 F           4.6513    0.3732   12.5845 F       1  LIG1       -0.2035
      8 F           9.1358   -1.0399   12.8178 F       1  LIG1       -0.2035
      9 N           6.3668   -2.2393   10.8875 N.ar    1  LIG1       -0.2576
     10 C           7.1978    0.7982   13.8193 C.3     1  LIG1        0.0744
     11 C           5.4219   -1.4142   11.3156 C.ar    1  LIG1        0.0632
     12 C           5.6706   -0.4313   12.2444 C.ar    1  LIG1        0.1485
     13 C           6.9220   -0.2221   12.8157 C.ar    1  LIG1        0.0424
     14 C           7.8780   -1.1253   12.3302 C.ar    1  LIG1        0.1485
     15 C           7.5849   -2.0920   11.4057 C.ar    1  LIG1        0.0632
     16 C           3.9967    1.9106   16.4359 C.ar    1  LIG1        0.0438
     17 C           4.5911    2.8781   15.6540 C.ar    1  LIG1       -0.0246
     18 C           5.6247    2.4997   14.8069 C.ar    1  LIG1        0.0481
     19 C           6.1049    1.1921   14.7350 C.ar    1  LIG1        0.0059
     20 C           5.4667    0.2661   15.5776 C.ar    1  LIG1        0.0481
     21 C           4.4193    0.5948   16.4193 C.ar    1  LIG1       -0.0246
     22 C          10.8966    2.9448   13.9877 C.ar    1  LIG1        0.0438
     23 C          10.2406    2.8292   12.7733 C.ar    1  LIG1       -0.0246
     24 C           9.0482    2.1327   12.7322 C.ar    1  LIG1        0.0481
     25 C           8.4736    1.5241   13.8602 C.ar    1  LIG1        0.0059
     26 C           9.1966    1.6819   15.0494 C.ar    1  LIG1        0.0481
     27 C          10.3879    2.3841   15.1344 C.ar    1  LIG1       -0.0246
     28 H           4.5427   -1.5045   10.9686 H       1  LIG1        0.0859
     29 H           8.2750   -2.6787   11.1237 H       1  LIG1        0.0859
     30 H           4.3003    3.7821   15.6942 H       1  LIG1        0.0647
     31 H           4.0049   -0.0618   16.9670 H       1  LIG1        0.0647
     32 H          10.6029    3.2198   11.9858 H       1  LIG1        0.0647
     33 H          10.8413    2.4753   15.9638 H       1  LIG1        0.0647
@<TRIPOS>BOND
     1     9    11   ar
     2     9    15   ar
     3    28    11    1
     4    29    15    1
     5     4    24    1
     6    11    12   ar
     7    15    14   ar
     8    32    23    1
     9    12     7    1
    10    12    13   ar
    11    14    13   ar
    12    14     8    1
    13    24    23   ar
    14    24    25   ar
    15    23    22   ar
    16    13    10    1
    17     1    18    1
    18    10    25    1
    19    10    19    1
    20    25    26   ar
    21    22     6    1
    22    22    27   ar
    23    19    18   ar
    24    19    20   ar
    25    18    17   ar
    26    26    27   ar
    27    26     5    1
    28    27    33    1
    29    20     2    1
    30    20    21   ar
    31    17    30    1
    32    17    16   ar
    33    21    16   ar
    34    21    31    1
    35    16     3    1
