@<TRIPOS>MOLECULE
acetazolamide
 19 19 0 0 0
SMALL
GASTEIGER

@<TRIPOS>ATOM
      1 S           1.9005    1.3875    4.3815 S.2     1  LIG1       -0.0105
      2 S           3.4819    1.1434    1.7441 S.O2    1  LIG1        0.0815
      3 O           0.6060    1.8742    6.7588 O.2     1  LIG1       -0.2757
      4 O           4.3159    2.0487    2.4768 O.2     1  LIG1       -0.1512
      5 O           4.0374   -0.0118    1.1044 O.2     1  LIG1       -0.1512
      6 N           2.6599    1.9720    0.6446 N.3     1  LIG1       -0.2015
      7 N           1.5709   -0.4965    2.6489 N.ar    1  LIG1       -0.1190
      8 N           0.6385   -0.7211    3.6174 N.ar    1  LIG1       -0.1239
      9 N          -0.2084    0.1053    5.6116 N.am    1  LIG1       -0.2635
     10 C           2.2878    0.5548    2.9127 C.ar    1  LIG1        0.2556
     11 C           0.6834    0.1805    4.5783 C.ar    1  LIG1        0.1893
     12 C          -0.2327    0.9755    6.6623 C.2     1  LIG1        0.2156
     13 C          -1.3589    0.7660    7.6271 C.3     1  LIG1        0.0125
     14 H           2.1504    1.3771   -0.0092 H       1  LIG1        0.1443
     15 H           2.1768    2.7729    1.0498 H       1  LIG1        0.1443
     16 H          -1.6521   -0.2705    7.6150 H       1  LIG1        0.0323
     17 H          -1.0157    1.0728    8.6005 H       1  LIG1        0.0323
     18 H          -2.1854    1.3705    7.2932 H       1  LIG1        0.0323
     19 H          -0.9019   -0.6560    5.5941 H       1  LIG1        0.1568
@<TRIPOS>BOND
     1    14     6    1
     2     6    15    1
     3     6     2    1
     4     5     2    2
     5     2     4    2
     6     2    10    1
     7     7    10   ar
     8     7     8   ar
     9    10     1   ar
    10     8    11   ar
    11     1    11   ar
    12    11     9    1
    13    19     9    1
    14     9    12   am
    15    12     3    2
    16    12    13    1
    17    18    13    1
    18    16    13    1
    19    13    17    1
