@<TRIPOS>MOLECULE
?
 65 68 0 0 0
SMALL
GASTEIGER

@<TRIPOS>ATOM
      1 S           2.3081    2.6118    5.0339 S.O2    1  LIG1        0.0723
      2 O           2.5447    1.3535    5.6692 O.2     1  LIG1       -0.1500
      3 O           2.8022    2.8602    3.7134 O.2     1  LIG1       -0.1500
      4 O          -0.5728    5.6475   10.0528 O.2     1  LIG1       -0.2477
      5 O          -0.6244    6.6057    8.0276 O.3     1  LIG1       -0.4630
      6 O          -3.2011    5.4104    6.2885 O.2     1  LIG1       -0.2477
      7 O          -3.5289    6.7751    8.0192 O.3     1  LIG1       -0.4630
      8 O          -2.7169    2.1678    9.2886 O.3     1  LIG1       -0.4693
      9 N           0.6915    2.8173    4.9334 N.pl3   1  LIG1       -0.2162
     10 H           0.3678    2.3588    4.2819 H       1  LIG1        0.1737
     11 N          -2.9966    4.5213    9.5952 N.3     1  LIG1       -0.2499
     12 H          -3.5355    5.1488    9.8291 H       1  LIG1        0.1275
     13 C           4.2301    7.0455    8.6717 C.3     1  LIG1       -0.0397
     14 H           3.6732    7.0853    9.4513 H       1  LIG1        0.0278
     15 H           4.1748    7.8769    8.1939 H       1  LIG1        0.0278
     16 H           5.1407    6.8896    8.9356 H       1  LIG1        0.0278
     17 C           3.7701    5.9296    7.7831 C.ar    1  LIG1       -0.0503
     18 C           3.3680    4.7073    8.3011 C.ar    1  LIG1       -0.0570
     19 H           3.3833    4.5764    9.2214 H       1  LIG1        0.0621
     20 C           2.9426    3.6742    7.4761 C.ar    1  LIG1       -0.0348
     21 H           2.6802    2.8591    7.8381 H       1  LIG1        0.0637
     22 C           2.9137    3.8742    6.1044 C.ar    1  LIG1        0.1085
     23 C           3.3058    5.0929    5.5636 C.ar    1  LIG1       -0.0348
     24 H           3.2730    5.2297    4.6437 H       1  LIG1        0.0637
     25 C           3.7449    6.0950    6.4022 C.ar    1  LIG1       -0.0570
     26 H           4.0311    6.8999    6.0350 H       1  LIG1        0.0621
     27 C          -0.1170    2.6625    6.1048 C.ar    1  LIG1        0.0486
     28 C          -0.3901    1.3960    6.6221 C.ar    1  LIG1       -0.0359
     29 H          -0.0008    0.6430    6.2389 H       1  LIG1        0.0638
     30 C          -1.2361    1.2589    7.6996 C.ar    1  LIG1       -0.0177
     31 H          -1.4025    0.4164    8.0580 H       1  LIG1        0.0655
     32 C          -1.8436    2.3877    8.2517 C.ar    1  LIG1        0.1293
     33 C          -1.5691    3.6568    7.7622 C.ar    1  LIG1        0.0379
     34 C          -0.6964    3.7823    6.6801 C.ar    1  LIG1       -0.0298
     35 H          -0.5010    4.6264    6.3409 H       1  LIG1        0.0641
     36 C          -2.1889    4.8808    8.4346 C.3     1  LIG1        0.2460
     37 C          -3.6499    3.2508    9.4731 C.3     1  LIG1        0.1794
     38 H          -4.2658    3.2770    8.7117 H       1  LIG1        0.0963
     39 C          -4.4234    2.9283   10.7249 C.ar    1  LIG1        0.0076
     40 C          -3.7503    2.6855   11.9065 C.ar    1  LIG1       -0.0537
     41 H          -2.8194    2.6958   11.9181 H       1  LIG1        0.0622
     42 C          -4.4456    2.4265   13.0669 C.ar    1  LIG1       -0.0613
     43 H          -3.9833    2.2661   13.8571 H       1  LIG1        0.0618
     44 C          -5.8149    2.4059   13.0655 C.ar    1  LIG1       -0.0617
     45 H          -6.2822    2.2485   13.8551 H       1  LIG1        0.0618
     46 C          -6.4954    2.6178   11.8961 C.ar    1  LIG1       -0.0613
     47 H          -7.4240    2.5854   11.8921 H       1  LIG1        0.0618
     48 C          -5.8022    2.8841   10.7063 C.ar    1  LIG1       -0.0537
     49 H          -6.2655    3.0283    9.9131 H       1  LIG1        0.0622
     50 C          -3.0260    5.7085    7.4401 C.2     1  LIG1        0.3436
     51 C          -4.2360    7.7165    7.1427 C.3     1  LIG1        0.0897
     52 H          -4.9139    8.1904    7.6502 H       1  LIG1        0.0694
     53 H          -4.6752    7.2310    6.4268 H       1  LIG1        0.0694
     54 C          -3.2733    8.6789    6.5747 C.3     1  LIG1       -0.0306
     55 H          -2.6525    8.2139    6.0070 H       1  LIG1        0.0262
     56 H          -2.7956    9.1115    7.2844 H       1  LIG1        0.0262
     57 H          -3.7449    9.3367    6.0590 H       1  LIG1        0.0262
     58 C          -1.0379    5.7611    8.9514 C.2     1  LIG1        0.3436
     59 C           0.4675    7.5061    8.4166 C.3     1  LIG1        0.0897
     60 H           1.2342    6.9940    8.7157 H       1  LIG1        0.0694
     61 H           0.1840    8.0859    9.1415 H       1  LIG1        0.0694
     62 C           0.8180    8.3096    7.2264 C.3     1  LIG1       -0.0306
     63 H           1.1062    7.7254    6.5208 H       1  LIG1        0.0262
     64 H           1.5279    8.9173    7.4483 H       1  LIG1        0.0262
     65 H           0.0496    8.8055    6.9366 H       1  LIG1        0.0262
@<TRIPOS>BOND
     1     3     1    2
     2    10     9    1
     3    24    23    1
     4     9     1    1
     5     9    27    1
     6     1     2    2
     7     1    22    1
     8    23    22   ar
     9    23    25   ar
    10    55    54    1
    11    26    25    1
    12    57    54    1
    13    22    20   ar
    14    27    28   ar
    15    27    34   ar
    16    29    28    1
    17     6    50    2
    18    35    34    1
    19    25    17   ar
    20    53    51    1
    21    63    62    1
    22    54    51    1
    23    54    56    1
    24    28    30   ar
    25    34    33   ar
    26    65    62    1
    27    51    52    1
    28    51     7    1
    29    62    64    1
    30    62    59    1
    31    50     7    1
    32    50    36    1
    33    20    21    1
    34    20    18   ar
    35    30    31    1
    36    30    32   ar
    37    33    32   ar
    38    33    36    1
    39    17    18   ar
    40    17    13    1
    41     5    59    1
    42     5    58    1
    43    15    13    1
    44    32     8    1
    45    18    19    1
    46    59    60    1
    47    59    61    1
    48    36    58    1
    49    36    11    1
    50    13    16    1
    51    13    14    1
    52    38    37    1
    53    58     4    2
    54     8    37    1
    55    37    11    1
    56    37    39    1
    57    11    12    1
    58    49    48    1
    59    48    39   ar
    60    48    46   ar
    61    39    40   ar
    62    47    46    1
    63    46    44   ar
    64    40    41    1
    65    40    42   ar
    66    44    42   ar
    67    44    45    1
    68    42    43    1
