@<TRIPOS>MOLECULE
?
 27 26 0 0 0
SMALL
GASTEIGER

@<TRIPOS>ATOM
      1 O           1.8388    0.0415    5.1160 O.2     1  LIG1       -0.2831
      2 O           2.5127    2.9164    5.1273 O.2     1  LIG1       -0.2451
      3 O           2.2798    2.4893    2.9395 O.3     1  LIG1       -0.4771
      4 H           3.2146    2.6994    2.9016 H       1  LIG1        0.2954
      5 C           0.6370    0.0518    5.3277 C.2     1  LIG1        0.2343
      6 C          -0.2131    1.1858    4.8750 C.ar    1  LIG1        0.0472
      7 C          -1.6118    1.1038    4.9926 C.ar    1  LIG1       -0.0055
      8 C          -2.4189    2.1258    4.4981 C.ar    1  LIG1       -0.0533
      9 H          -3.3856    2.0522    4.6063 H       1  LIG1        0.0624
     10 C          -1.8499    3.2245    3.8742 C.ar    1  LIG1       -0.0604
     11 H          -2.3790    3.9351    3.5215 H       1  LIG1        0.0618
     12 C          -0.4676    3.3149    3.7619 C.ar    1  LIG1       -0.0470
     13 H          -0.0573    4.0896    3.3544 H       1  LIG1        0.0626
     14 C           0.3597    2.3152    4.2688 C.ar    1  LIG1        0.0703
     15 C           1.8489    2.5684    4.1763 C.2     1  LIG1        0.3375
     16 O           7.2321    6.7039    2.8119 O.2     2  LIG2       -0.2793
     17 N           5.4679    6.1108    4.1056 N.am    2  LIG2       -0.3101
     18 C           6.7580    6.1863    3.8405 C.2     2  LIG2        0.2020
     19 H           7.3287    5.7666    4.5425 H       2  LIG2        0.1253
     20 C           4.9734    5.4518    5.3102 C.3     2  LIG2        0.0026
     21 H           4.4742    4.6560    5.1019 H       2  LIG2        0.0428
     22 H           4.3975    6.0976    5.8043 H       2  LIG2        0.0428
     23 H           5.7357    5.1856    5.8724 H       2  LIG2        0.0428
     24 C           4.4702    6.5941    3.1685 C.3     2  LIG2        0.0026
     25 H           4.8903    6.9509    2.3399 H       2  LIG2        0.0428
     26 H           3.8907    7.2524    3.5500 H       2  LIG2        0.0428
     27 H           3.9007    5.8034    2.8906 H       2  LIG2        0.0428
@<TRIPOS>BOND
     1    25    24    1
     2    16    18    2
     3    27    24    1
     4     4     3    1
     5     3    15    1
     6    24    26    1
     7    24    17    1
     8    13    12    1
     9    11    10    1
    10    12    10   ar
    11    12    14   ar
    12    18    17   am
    13    18    19    1
    14    10     8   ar
    15    17    20    1
    16    15    14    1
    17    15     2    2
    18    14     6   ar
    19     8     9    1
    20     8     7   ar
    21     6     7   ar
    22     6     5    1
    23    21    20    1
    24     1     5    2
    25    20    22    1
    26    20    23    1
