@<TRIPOS>MOLECULE
N,N'-bis(2-pyridyl)guanidinium nitrate
 32 32 0 0 0
SMALL
GASTEIGER

@<TRIPOS>ATOM
      1 O           0.8582    2.8352    1.3083 O.2     1  LIG1       -0.0867
      2 N           1.6552   -1.8954    2.0292 N.ar    2  LIG2       -0.2243
      3 C           1.7166   -0.5617    1.9744 C.ar    2  LIG2        0.1924
      4 O          -0.1410    3.1353   -0.6032 O.2     1  LIG1       -0.0867
      5 N           1.1140    0.0946    0.8911 N.pl3   2  LIG2       -0.2299
      6 H           1.0878    0.9734    0.9306 H       2  LIG2        0.2662
      7 C           2.3271    0.2223    2.9622 C.ar    2  LIG2       -0.0035
      8 H           2.3689    1.1675    2.8840 H       2  LIG2        0.0668
      9 O          -0.8493    4.1475    1.1725 O.2     1  LIG1       -0.0867
     10 N           0.5564   -1.7790   -0.3744 N.pl3   2  LIG2       -0.2910
     11 H           0.1946   -2.1303   -1.0954 H       2  LIG2        0.2546
     12 H           0.9123   -2.3007    0.2383 H       2  LIG2        0.2546
     13 C           2.8633   -0.4270    4.0489 C.ar    2  LIG2       -0.0555
     14 H           3.2838    0.0700    4.7404 H       2  LIG2        0.0620
     15 N           0.0367    0.3723   -1.1164 N.pl3   2  LIG2       -0.2299
     16 H           0.1560    1.2309   -0.9638 H       2  LIG2        0.2662
     17 C           2.7898   -1.8107    4.1345 C.ar    2  LIG2       -0.0434
     18 H           3.1424   -2.2716    4.8866 H       2  LIG2        0.0633
     19 N          -0.7017   -1.2359   -2.6584 N.ar    2  LIG2       -0.2243
     20 C           2.1953   -2.4927    3.1070 C.ar    2  LIG2        0.0312
     21 H           2.1630   -3.4405    3.1570 H       2  LIG2        0.0831
     22 N          -0.0243    3.3906    0.6018 N.pl3   1  LIG1        0.2601
     23 C           0.5655   -0.4790   -0.2140 C.cat   2  LIG2        0.3552
     24 C          -0.6848    0.0349   -2.2765 C.ar    2  LIG2        0.1924
     25 C          -1.3447    1.0625   -2.9609 C.ar    2  LIG2       -0.0035
     26 H          -1.2893    1.9652   -2.6683 H       2  LIG2        0.0668
     27 C          -2.0785    0.7153   -4.0756 C.ar    2  LIG2       -0.0555
     28 H          -2.5503    1.3815   -4.5619 H       2  LIG2        0.0620
     29 C          -2.1262   -0.6141   -4.4851 C.ar    2  LIG2       -0.0434
     30 H          -2.6291   -0.8704   -5.2493 H       2  LIG2        0.0633
     31 C          -1.4256   -1.5470   -3.7548 C.ar    2  LIG2        0.0312
     32 H          -1.4532   -2.4539   -4.0360 H       2  LIG2        0.0831
@<TRIPOS>BOND
     1    30    29    1
     2    28    27    1
     3    29    27   ar
     4    29    31   ar
     5    27    25   ar
     6    32    31    1
     7    31    19   ar
     8    25    26    1
     9    25    24   ar
    10    19    24   ar
    11    24    15    1
    12    15    16    1
    13    15    23    1
    14    11    10    1
    15     4    22    2
    16    10    23    2
    17    10    12    1
    18    23     5    1
    19    22     9    1
    20    22     1    2
    21     5     6    1
    22     5     3    1
    23     3     2   ar
    24     3     7   ar
    25     2    20   ar
    26     8     7    1
    27     7    13   ar
    28    20    21    1
    29    20    17   ar
    30    13    17   ar
    31    13    14    1
    32    17    18    1
