@<TRIPOS>MOLECULE
?
 32 32 0 0 0
SMALL
GASTEIGER

@<TRIPOS>ATOM
      1 O           2.9184   13.9616    2.6487 O.2     1  LIG1       -0.2702
      2 N           1.5990   12.1428    2.9381 N.am    1  LIG1       -0.3101
      3 H           1.3899   11.3393    2.6476 H       1  LIG1        0.1490
      4 N          -0.0526   10.4461    4.7744 N.3     1  LIG1       -0.3069
      5 N           4.4553   10.7555   -2.6563 N.pl3   1  LIG1       -0.3580
      6 H           5.2596   10.9743   -2.9390 H       1  LIG1        0.1423
      7 H           3.9516   10.2182   -3.1376 H       1  LIG1        0.1423
      8 C           3.9863   11.2526   -1.4602 C.ar    1  LIG1        0.0246
      9 C           2.7218   10.8815   -0.9757 C.ar    1  LIG1       -0.0403
     10 H           2.1775   10.2917   -1.4847 H       1  LIG1        0.0636
     11 C           2.2629   11.3655    0.2337 C.ar    1  LIG1       -0.0479
     12 H           1.4066   11.0990    0.5466 H       1  LIG1        0.0626
     13 C           3.0326   12.2402    1.0075 C.ar    1  LIG1        0.0368
     14 C           2.5229   12.8559    2.2655 C.2     1  LIG1        0.2441
     15 C           0.9316   12.6528    4.1313 C.3     1  LIG1        0.0246
     16 H           0.0382   12.9999    3.8814 H       1  LIG1        0.0475
     17 H           1.4568   13.4055    4.5006 H       1  LIG1        0.0475
     18 C           0.7708   11.5892    5.1975 C.3     1  LIG1        0.0139
     19 H           1.6672   11.2579    5.4560 H       1  LIG1        0.0442
     20 H           0.3591   11.9996    5.9983 H       1  LIG1        0.0442
     21 C          -1.4520   10.8188    4.5877 C.3     1  LIG1       -0.0130
     22 H          -1.9707   10.0266    4.3367 H       1  LIG1        0.0391
     23 H          -1.5190   11.4916    3.8785 H       1  LIG1        0.0391
     24 H          -1.8064   11.1883    5.4227 H       1  LIG1        0.0391
     25 C           0.0382    9.3911    5.7920 C.3     1  LIG1       -0.0130
     26 H          -0.2516    9.7469    6.6580 H       1  LIG1        0.0391
     27 H           0.9656    9.0814    5.8591 H       1  LIG1        0.0391
     28 H          -0.5390    8.6416    5.5372 H       1  LIG1        0.0391
     29 C           4.7690   12.1100   -0.6736 C.ar    1  LIG1       -0.0403
     30 H           5.6361   12.3579   -0.9729 H       1  LIG1        0.0636
     31 C           4.2988   12.5997    0.5302 C.ar    1  LIG1       -0.0479
     32 H           4.8419   13.1889    1.0410 H       1  LIG1        0.0626
@<TRIPOS>BOND
     1     7     5    1
     2     6     5    1
     3     5     8    1
     4    10     9    1
     5     8     9   ar
     6     8    29   ar
     7     9    11   ar
     8    30    29    1
     9    29    31   ar
    10    11    12    1
    11    11    13   ar
    12    31    13   ar
    13    31    32    1
    14    13    14    1
    15    14     1    2
    16    14     2   am
    17     3     2    1
    18     2    15    1
    19    23    21    1
    20    16    15    1
    21    15    17    1
    22    15    18    1
    23    22    21    1
    24    21     4    1
    25    21    24    1
    26     4    18    1
    27     4    25    1
    28    18    19    1
    29    18    20    1
    30    28    25    1
    31    25    27    1
    32    25    26    1
