@<TRIPOS>MOLECULE
?
 50 54 0 0 0
SMALL
GASTEIGER

@<TRIPOS>ATOM
      1 O           5.2732    3.1943    3.5305 O.2     1  LIG1       -0.2889
      2 C           3.8575    5.8586    3.5478 C.ar    1  LIG1       -0.0526
      3 H           3.6806    4.9276    3.4802 H       1  LIG1        0.0624
      4 C           2.8022    6.7746    3.4678 C.ar    1  LIG1       -0.0501
      5 C           3.0807    8.1276    3.5556 C.ar    1  LIG1       -0.0586
      6 H           2.3747    8.7594    3.4829 H       1  LIG1        0.0620
      7 C           4.3858    8.5716    3.7495 C.ar    1  LIG1       -0.0579
      8 H           4.5589    9.5021    3.8248 H       1  LIG1        0.0620
      9 C           5.4366    7.6683    3.8334 C.ar    1  LIG1       -0.0394
     10 C           6.8604    8.0620    4.0834 C.3     1  LIG1       -0.0063
     11 H           6.8978    9.0239    4.3144 H       1  LIG1        0.0334
     12 H           7.3870    7.9255    3.2559 H       1  LIG1        0.0334
     13 C           7.4842    7.2402    5.2248 C.3     1  LIG1        0.0348
     14 N           7.2961    5.8064    4.8720 N.pl3   1  LIG1       -0.3036
     15 C           7.5562    4.7372    5.6992 C.ar    1  LIG1        0.0421
     16 C           8.4264    4.6458    6.8070 C.ar    1  LIG1       -0.0399
     17 H           8.8925    5.4109    7.1232 H       1  LIG1        0.0636
     18 C           8.5840    3.4193    7.4204 C.ar    1  LIG1       -0.0600
     19 H           9.1843    3.3511    8.1529 H       1  LIG1        0.0618
     20 C           7.8955    2.2713    7.0076 C.ar    1  LIG1       -0.0610
     21 H           8.0299    1.4449    7.4555 H       1  LIG1        0.0618
     22 C           7.0185    2.3529    5.9419 C.ar    1  LIG1       -0.0494
     23 H           6.5324    1.5895    5.6531 H       1  LIG1        0.0625
     24 C           6.8629    3.5825    5.2987 C.ar    1  LIG1        0.0413
     25 C           6.0414    3.9121    4.1533 C.2     1  LIG1        0.1972
     26 C           6.3758    5.3870    3.7875 C.3     1  LIG1        0.1495
     27 C           5.1637    6.3016    3.7246 C.ar    1  LIG1       -0.0085
     28 C           1.3854    6.2737    3.3115 C.3     1  LIG1       -0.0397
     29 H           0.7945    7.0265    3.1001 H       1  LIG1        0.0278
     30 H           1.0933    5.8539    4.1475 H       1  LIG1        0.0278
     31 H           1.3493    5.6168    2.5859 H       1  LIG1        0.0278
     32 C           6.7735    7.5661    6.5477 C.3     1  LIG1       -0.0435
     33 H           5.8087    7.4304    6.4422 H       1  LIG1        0.0250
     34 H           6.9480    8.4988    6.7909 H       1  LIG1        0.0250
     35 H           7.1111    6.9757    7.2544 H       1  LIG1        0.0250
     36 C           8.9686    7.6014    5.3159 C.3     1  LIG1       -0.0435
     37 H           9.4133    7.3705    4.4730 H       1  LIG1        0.0250
     38 H           9.3821    7.1021    6.0511 H       1  LIG1        0.0250
     39 H           9.0612    8.5627    5.4808 H       1  LIG1        0.0250
     40 C           7.1063    5.3192    2.4300 C.ar    1  LIG1       -0.0120
     41 C           6.3672    5.2708    1.2475 C.ar    1  LIG1       -0.0558
     42 H           5.4212    5.3523    1.2800 H       1  LIG1        0.0621
     43 C           7.0027    5.1033    0.0200 C.ar    1  LIG1       -0.0614
     44 H           6.4895    5.0696   -0.7795 H       1  LIG1        0.0618
     45 C           8.3865    4.9858   -0.0379 C.ar    1  LIG1       -0.0617
     46 H           8.8211    4.8650   -0.8738 H       1  LIG1        0.0618
     47 C           9.1283    5.0447    1.1297 C.ar    1  LIG1       -0.0614
     48 H          10.0748    4.9745    1.0912 H       1  LIG1        0.0618
     49 C           8.4943    5.2069    2.3607 C.ar    1  LIG1       -0.0558
     50 H           9.0116    5.2416    3.1575 H       1  LIG1        0.0621
@<TRIPOS>BOND
     1    46    45    1
     2    44    43    1
     3    45    43   ar
     4    45    47   ar
     5    43    41   ar
     6    48    47    1
     7    47    49   ar
     8    41    42    1
     9    41    40   ar
    10    49    40   ar
    11    49    50    1
    12    40    26    1
    13    31    28    1
    14    29    28    1
    15    12    10    1
    16    28     4    1
    17    28    30    1
    18     4     2   ar
    19     4     5   ar
    20     3     2    1
    21     6     5    1
    22     1    25    2
    23     2    27   ar
    24     5     7   ar
    25    27    26    1
    26    27     9   ar
    27     7     8    1
    28     7     9   ar
    29    26    25    1
    30    26    14    1
    31     9    10    1
    32    10    11    1
    33    10    13    1
    34    25    24    1
    35    37    36    1
    36    14    13    1
    37    14    15    1
    38    13    36    1
    39    13    32    1
    40    24    15   ar
    41    24    22   ar
    42    36    39    1
    43    36    38    1
    44    23    22    1
    45    15    16   ar
    46    22    20   ar
    47    33    32    1
    48    32    34    1
    49    32    35    1
    50    16    17    1
    51    16    18   ar
    52    20    18   ar
    53    20    21    1
    54    18    19    1
