@<TRIPOS>MOLECULE
?
 36 39 0 0 0
SMALL
GASTEIGER

@<TRIPOS>ATOM
      1 CL          3.3810    6.0015    4.0152 Cl      1  LIG1       -0.0829
      2 O           2.9304   11.5248    1.3147 O.2     1  LIG1       -0.2895
      3 N           4.5250   11.8132    4.1957 N.ar    1  LIG1       -0.2569
      4 N           4.5573    8.6063    2.4468 N.pl3   1  LIG1       -0.2840
      5 C           4.0946   10.5841    3.8937 C.ar    1  LIG1        0.0767
      6 C           3.2710    9.8342    4.7206 C.ar    1  LIG1       -0.0375
      7 H           3.0025    8.9779    4.4782 H       1  LIG1        0.0636
      8 C           2.8589   10.3974    5.9237 C.ar    1  LIG1       -0.0585
      9 H           2.2990    9.9252    6.4963 H       1  LIG1        0.0619
     10 C           3.2951   11.6737    6.2579 C.ar    1  LIG1       -0.0436
     11 H           3.0306   12.0752    7.0540 H       1  LIG1        0.0633
     12 C           4.1287   12.3279    5.3810 C.ar    1  LIG1        0.0280
     13 H           4.4365   13.1727    5.6164 H       1  LIG1        0.0829
     14 C           4.5047   10.0777    2.4956 C.3     1  LIG1        0.1620
     15 C           5.7990   10.6798    2.0401 C.2     1  LIG1       -0.0470
     16 H           5.8119   11.5324    1.6690 H       1  LIG1        0.0602
     17 C           6.9303    9.9897    2.1678 C.2     1  LIG1       -0.0617
     18 H           7.7390   10.3949    1.9513 H       1  LIG1        0.0616
     19 C           6.9254    8.6161    2.6406 C.2     1  LIG1       -0.0479
     20 H           7.7207    8.2050    2.8910 H       1  LIG1        0.0630
     21 C           5.7671    7.9463    2.7131 C.2     1  LIG1       -0.0016
     22 H           5.7647    7.0441    2.9399 H       1  LIG1        0.0784
     23 C           3.5213    8.1234    1.6949 C.2     1  LIG1        0.0469
     24 C           2.7437    9.1229    1.1854 C.2     1  LIG1        0.0057
     25 H           1.9774    9.0011    0.6724 H       1  LIG1        0.0672
     26 C           3.2971   10.3902    1.5671 C.2     1  LIG1        0.1914
     27 C           3.2884    6.6913    1.3797 C.ar    1  LIG1        0.0148
     28 C           3.0390    6.3653    0.0259 C.ar    1  LIG1       -0.0514
     29 H           3.0769    7.0318   -0.6215 H       1  LIG1        0.0624
     30 C           2.7394    5.0706   -0.3482 C.ar    1  LIG1       -0.0611
     31 H           2.5790    4.8717   -1.2420 H       1  LIG1        0.0618
     32 C           2.6774    4.0711    0.6035 C.ar    1  LIG1       -0.0603
     33 H           2.4757    3.2004    0.3462 H       1  LIG1        0.0618
     34 C           2.9133    4.3558    1.9373 C.ar    1  LIG1       -0.0428
     35 H           2.8738    3.6809    2.5758 H       1  LIG1        0.0632
     36 C           3.2125    5.6647    2.3154 C.ar    1  LIG1        0.0499
@<TRIPOS>BOND
     1    31    30    1
     2    29    28    1
     3    30    28   ar
     4    30    32   ar
     5    28    27   ar
     6    33    32    1
     7    32    34   ar
     8    25    24    1
     9    24    26    1
    10    24    23    2
    11     2    26    2
    12    27    23    1
    13    27    36   ar
    14    26    14    1
    15    16    15    1
    16    23     4    1
    17    34    36   ar
    18    34    35    1
    19    18    17    1
    20    15    17    2
    21    15    14    1
    22    17    19    1
    23    36     1    1
    24     4    14    1
    25     4    21    1
    26    14     5    1
    27    19    21    2
    28    19    20    1
    29    21    22    1
    30     5     3   ar
    31     5     6   ar
    32     3    12   ar
    33     7     6    1
    34     6     8   ar
    35    12    13    1
    36    12    10   ar
    37     8    10   ar
    38     8     9    1
    39    10    11    1
