@<TRIPOS>MOLECULE
C24 H17 N3 O3
 47 52 0 0 0
SMALL
GASTEIGER

@<TRIPOS>ATOM
      1 O           6.4290   10.3813    1.5727 O.3     1  LIG1       -0.0769
      2 O           5.3135    8.3981    1.4105 O.2     1  LIG1       -0.2648
      3 O           3.9020   16.0288    5.2400 O.2     1  LIG1       -0.2866
      4 N           5.4398    9.7385    1.9142 N.4     1  LIG1        0.0630
      5 N           4.1278    7.8873    1.8904 N.2     1  LIG1       -0.0589
      6 N           4.6361   11.3609    4.6169 N.ar    1  LIG1       -0.2480
      7 C           4.3881    9.9837    2.6739 C.3     1  LIG1        0.2122
      8 C           3.5647    8.8181    2.6356 C.2     1  LIG1        0.1244
      9 C           2.2415    8.5967    3.2292 C.ar    1  LIG1        0.0020
     10 C           1.5841    9.5906    3.9553 C.ar    1  LIG1       -0.0527
     11 H           2.0138   10.4372    4.1006 H       1  LIG1        0.0624
     12 C           0.3216    9.3632    4.4719 C.ar    1  LIG1       -0.0611
     13 H          -0.1257   10.0410    4.9591 H       1  LIG1        0.0618
     14 C          -0.3014    8.1377    4.2860 C.ar    1  LIG1       -0.0617
     15 H          -1.1825    7.9393    4.6585 H       1  LIG1        0.0618
     16 C           0.3499    7.1420    3.5677 C.ar    1  LIG1       -0.0611
     17 H          -0.0872    6.2504    3.4462 H       1  LIG1        0.0618
     18 C           1.6032    7.3656    3.0398 C.ar    1  LIG1       -0.0527
     19 H           2.0643    6.6995    2.5433 H       1  LIG1        0.0624
     20 C           4.2702   11.3183    3.3136 C.ar    1  LIG1        0.0804
     21 C           3.8499   12.4049    2.5408 C.ar    1  LIG1       -0.0197
     22 C           3.5389   12.2098    1.0730 C.3     1  LIG1       -0.0256
     23 H           2.9784   11.3900    0.9716 H       1  LIG1        0.0314
     24 H           4.4041   12.0654    0.6189 H       1  LIG1        0.0314
     25 C           2.8364   13.3997    0.4255 C.3     1  LIG1       -0.0487
     26 H           1.8609   13.4125    0.6644 H       1  LIG1        0.0268
     27 H           2.8973   13.3070   -0.5224 H       1  LIG1        0.0268
     28 C           3.4636   14.7148    0.8636 C.3     1  LIG1       -0.0487
     29 H           3.0288   15.4575    0.4093 H       1  LIG1        0.0268
     30 H           4.4288   14.7434    0.5978 H       1  LIG1        0.0268
     31 C           3.3453   14.8961    2.3773 C.3     1  LIG1       -0.0266
     32 H           2.3981   15.0703    2.6210 H       1  LIG1        0.0313
     33 H           3.8758   15.6720    2.6919 H       1  LIG1        0.0313
     34 C           3.7791   13.6746    3.1480 C.ar    1  LIG1       -0.0295
     35 C           4.1439   13.7259    4.4858 C.ar    1  LIG1        0.0517
     36 C           4.2278   14.8747    5.4395 C.2     1  LIG1        0.1961
     37 C           4.7712   14.3005    6.7085 C.ar    1  LIG1        0.0315
     38 C           5.0722   14.9357    7.9050 C.ar    1  LIG1       -0.0503
     39 H           4.9483   15.8865    8.0026 H       1  LIG1        0.0625
     40 C           5.5499   14.1492    8.9507 C.ar    1  LIG1       -0.0610
     41 H           5.7769   14.5644    9.8206 H       1  LIG1        0.0618
     42 C           5.7172   12.7775    8.7993 C.ar    1  LIG1       -0.0611
     43 H           6.0212   12.2319    9.5555 H       1  LIG1        0.0618
     44 C           5.4339   12.1400    7.5843 C.ar    1  LIG1       -0.0519
     45 H           5.5620   11.1797    7.4980 H       1  LIG1        0.0624
     46 C           4.9563   12.9211    6.5464 C.ar    1  LIG1        0.0119
     47 C           4.5682   12.5709    5.1581 C.ar    1  LIG1        0.0831
@<TRIPOS>BOND
     1    27    25    1
     2    29    28    1
     3    25    26    1
     4    25    28    1
     5    25    22    1
     6    30    28    1
     7    24    22    1
     8    28    31    1
     9    23    22    1
    10    22    21    1
    11     2     5    1
    12     2     4    1
    13     1     4    1
    14     5     8    2
    15     4     7    1
    16    31    32    1
    17    31    33    1
    18    31    34    1
    19    21    34   ar
    20    21    20   ar
    21    19    18    1
    22     8     7    1
    23     8     9    1
    24     7    20    1
    25    18     9   ar
    26    18    16   ar
    27    34    35   ar
    28     9    10   ar
    29    20     6   ar
    30    17    16    1
    31    16    14   ar
    32    10    11    1
    33    10    12   ar
    34    14    12   ar
    35    14    15    1
    36    12    13    1
    37    35    47   ar
    38    35    36    1
    39     6    47   ar
    40    47    46    1
    41     3    36    2
    42    36    37    1
    43    46    37   ar
    44    46    44   ar
    45    37    38   ar
    46    45    44    1
    47    44    42   ar
    48    38    39    1
    49    38    40   ar
    50    42    40   ar
    51    42    43    1
    52    40    41    1
