@<TRIPOS>MOLECULE
?
 15 15 0 0 0
SMALL
GASTEIGER

@<TRIPOS>ATOM
      1 N           4.1425    0.5342    0.4348 N.2     1  LIG1       -0.1570
      2 C           3.2352    1.3380    0.0252 C.2     1  LIG1        0.0605
      3 H           2.8080    1.1699   -0.7835 H       1  LIG1        0.0855
      4 C           2.8618    2.5044    0.7968 C.ar    1  LIG1        0.0362
      5 C           3.4939    2.8218    2.0113 C.ar    1  LIG1        0.1255
      6 C           1.8620    3.3553    0.3281 C.ar    1  LIG1       -0.0496
      7 H           1.4370    3.1592   -0.4755 H       1  LIG1        0.0625
      8 C           2.1346    4.7826    2.2128 C.ar    1  LIG1       -0.0583
      9 H           1.8936    5.5470    2.6845 H       1  LIG1        0.0619
     10 C           3.1230    3.9721    2.6970 C.ar    1  LIG1       -0.0195
     11 H           3.5507    4.1923    3.4928 H       1  LIG1        0.0654
     12 C           1.4906    4.4786    1.0297 C.ar    1  LIG1       -0.0609
     13 H           0.8114    5.0279    0.7105 H       1  LIG1        0.0618
     14 O           4.4612    2.0466    2.5334 O.3     1  LIG1       -0.5061
     15 H           4.5821    1.3560    1.9785 H       1  LIG1        0.2922
@<TRIPOS>BOND
     1     3     2    1
     2     7     6    1
     3     2     1    2
     4     2     4    1
     5     6     4   ar
     6     6    12   ar
     7    13    12    1
     8     4     5   ar
     9    12     8   ar
    10    15    14    1
    11     5    14    1
    12     5    10   ar
    13     8     9    1
    14     8    10   ar
    15    10    11    1
