@<TRIPOS>MOLECULE
5-Chloro-6'-methyl-3-[4-(methylsulfonyl)phenyl]-2,3'-bipyridine-hexane-1,6-dicarboxylic acid
 49 50 0 0 0
SMALL
GASTEIGER

@<TRIPOS>ATOM
      1 S          11.6871    1.0369    2.7723 S.O2    1  LIG1       -0.0059
      2 CL          8.1269    1.0175   11.2928 Cl      1  LIG1       -0.0820
      3 C           5.6476    1.6095    5.9606 C.ar    1  LIG1        0.0190
      4 C           8.6726    1.0801    6.1602 C.ar    1  LIG1       -0.0157
      5 C          10.4936    1.0329    4.0764 C.ar    1  LIG1        0.0879
      6 C           4.1479    1.6754    3.6609 C.ar    1  LIG1        0.0382
      7 O           5.4383    4.2904    1.9846 O.3     2  LIG2       -0.4806
      8 O          11.7100    2.3536    2.2092 O.2     1  LIG1       -0.1696
      9 C           9.5842    2.0746    4.1704 C.ar    1  LIG1       -0.0363
     10 H           9.5816    2.7539    3.5355 H       1  LIG1        0.0637
     11 N           5.0455    0.7023    3.8230 N.ar    1  LIG1       -0.2595
     12 N           5.6288    1.7023    8.3239 N.ar    1  LIG1       -0.2529
     13 O          12.9045    0.4942    3.2866 O.2     1  LIG1       -0.1696
     14 C           7.7550    1.1548    7.3314 C.ar    1  LIG1        0.0095
     15 C          10.4997    0.0159    5.0128 C.ar    1  LIG1       -0.0363
     16 H          11.1124   -0.6815    4.9449 H       1  LIG1        0.0637
     17 C           8.6845    2.0949    5.2129 C.ar    1  LIG1       -0.0522
     18 H           8.0776    2.7962    5.2820 H       1  LIG1        0.0624
     19 C           8.2850    0.9736    8.6037 C.ar    1  LIG1       -0.0321
     20 H           9.1730    0.7183    8.7114 H       1  LIG1        0.0639
     21 C           6.6478    3.7873    1.9749 C.2     2  LIG2        0.3047
     22 C           9.5909    0.0456    6.0449 C.ar    1  LIG1       -0.0522
     23 H           9.5909   -0.6386    6.6750 H       1  LIG1        0.0624
     24 C           4.7301    2.6237    5.7661 C.ar    1  LIG1       -0.0494
     25 H           4.6197    3.2816    6.4133 H       1  LIG1        0.0625
     26 C           3.9798    2.6600    4.6124 C.ar    1  LIG1       -0.0400
     27 H           3.3634    3.3431    4.4759 H       1  LIG1        0.0636
     28 C           6.3951    1.4903    7.2442 C.ar    1  LIG1        0.0802
     29 C           5.7784    0.6826    4.9409 C.ar    1  LIG1        0.0370
     30 H           6.4119    0.0077    5.0392 H       1  LIG1        0.0836
     31 C          11.0533   -0.0664    1.5624 C.3     1  LIG1        0.0596
     32 H          11.5895   -0.0126    0.7684 H       1  LIG1        0.0468
     33 H          10.1481    0.1735    1.3529 H       1  LIG1        0.0468
     34 H          11.0765   -0.9632    1.9044 H       1  LIG1        0.0468
     35 O           7.5578    4.2607    2.5875 O.2     2  LIG2       -0.2510
     36 C           8.1324    2.2690    0.5397 C.3     2  LIG2       -0.0425
     37 H           8.7925    2.3151    1.2492 H       2  LIG2        0.0271
     38 H           8.1416    1.3668    0.1838 H       2  LIG2        0.0271
     39 C           3.3180    1.6370    2.4084 C.3     1  LIG1       -0.0224
     40 H           3.4998    2.4173    1.8809 H       1  LIG1        0.0292
     41 H           2.3861    1.6183    2.6422 H       1  LIG1        0.0292
     42 H           3.5361    0.8501    1.9044 H       1  LIG1        0.0292
     43 C           6.1751    1.5601    9.5257 C.ar    1  LIG1        0.0466
     44 H           5.6558    1.7254   10.2788 H       1  LIG1        0.0844
     45 C           7.4883    1.1751    9.6910 C.ar    1  LIG1        0.0596
     46 C           6.7547    2.5628    1.1189 C.3     2  LIG2        0.0448
     47 H           6.1276    2.6501    0.3842 H       2  LIG2        0.0377
     48 H           6.4773    1.7979    1.6475 H       2  LIG2        0.0377
     49 H           5.3868    4.9202    2.5196 H       2  LIG2        0.2951
@<TRIPOS>BOND
     1    38    36    1
     2    47    46    1
     3    36    46    1
     4    36    37    1
     5    32    31    1
     6    46    48    1
     7    46    21    1
     8    33    31    1
     9    31    34    1
    10    31     1    1
    11    40    39    1
    12    42    39    1
    13    21     7    1
    14    21    35    2
    15     7    49    1
    16     8     1    2
    17    39    41    1
    18    39     6    1
    19     1    13    2
    20     1     5    1
    21    10     9    1
    22     6    11   ar
    23     6    26   ar
    24    11    29   ar
    25     5     9   ar
    26     5    15   ar
    27     9    17   ar
    28    27    26    1
    29    26    24   ar
    30    29    30    1
    31    29     3   ar
    32    16    15    1
    33    15    22   ar
    34    17    18    1
    35    17     4   ar
    36    24     3   ar
    37    24    25    1
    38     3    28    1
    39    22     4   ar
    40    22    23    1
    41     4    14    1
    42    28    14   ar
    43    28    12   ar
    44    14    19   ar
    45    12    43   ar
    46    19    20    1
    47    19    45   ar
    48    43    45   ar
    49    43    44    1
    50    45     2    1
