@<TRIPOS>MOLECULE
Oxaprozin
 37 39 0 0 0
SMALL
GASTEIGER

@<TRIPOS>ATOM
      1 O           4.4755    6.9858   14.4020 O.2     1  LIG1       -0.4391
      2 O           6.2678    5.3481   18.8917 O.3     1  LIG1       -0.4806
      3 N           2.6720    6.6967   15.6476 N.ar    1  LIG1       -0.2127
      4 O           7.7934    4.5303   17.4781 O.2     1  LIG1       -0.2510
      5 C           0.2870    7.7683   13.0009 C.ar    1  LIG1       -0.0524
      6 H           0.8622    8.3043   12.4667 H       1  LIG1        0.0624
      7 C           3.3772    7.0959   13.5586 C.ar    1  LIG1        0.1630
      8 C           0.8230    6.9643   14.0149 C.ar    1  LIG1        0.0041
      9 C           3.6984    7.3245   12.1484 C.ar    1  LIG1        0.0195
     10 C           4.8857    7.9954   11.8186 C.ar    1  LIG1       -0.0510
     11 H           5.4576    8.3120   12.5072 H       1  LIG1        0.0625
     12 C           2.2575    6.9296   14.3233 C.ar    1  LIG1        0.1172
     13 C           3.9701    6.7529   15.6332 C.ar    1  LIG1        0.1973
     14 C           2.8718    6.8569   11.1190 C.ar    1  LIG1       -0.0510
     15 H           2.0708    6.3913   11.3307 H       1  LIG1        0.0625
     16 C           3.2200    7.0718    9.7896 C.ar    1  LIG1       -0.0611
     17 H           2.6494    6.7621    9.0955 H       1  LIG1        0.0618
     18 C          -1.9390    6.9969   13.5406 C.ar    1  LIG1       -0.0617
     19 H          -2.8742    7.0014   13.3711 H       1  LIG1        0.0618
     20 C          -0.0507    6.1986   14.7958 C.ar    1  LIG1       -0.0524
     21 H           0.2970    5.6649   15.4998 H       1  LIG1        0.0624
     22 C           5.2282    8.1965   10.4892 C.ar    1  LIG1       -0.0611
     23 H           6.0330    8.6522   10.2719 H       1  LIG1        0.0618
     24 C           6.7128    5.0272   17.6869 C.2     1  LIG1        0.3052
     25 C          -1.0840    7.7836   12.7704 C.ar    1  LIG1       -0.0611
     26 H          -1.4407    8.3349   12.0844 H       1  LIG1        0.0618
     27 C           4.4000    7.7362    9.4716 C.ar    1  LIG1       -0.0617
     28 H           4.6387    7.8754    8.5624 H       1  LIG1        0.0618
     29 C          -1.4185    6.2070   14.5553 C.ar    1  LIG1       -0.0611
     30 H          -1.9976    5.6718   15.0843 H       1  LIG1        0.0618
     31 C           4.9280    6.5847   16.7597 C.3     1  LIG1        0.0340
     32 H           4.4345    6.5870   17.6174 H       1  LIG1        0.0365
     33 H           5.5648    7.3425   16.7682 H       1  LIG1        0.0365
     34 C           5.6905    5.2819   16.6159 C.3     1  LIG1        0.0531
     35 H           5.0409    4.5348   16.6174 H       1  LIG1        0.0382
     36 H           6.1475    5.2796   15.7388 H       1  LIG1        0.0382
     37 H           6.8478    4.9699   19.5880 H       1  LIG1        0.2951
@<TRIPOS>BOND
     1    28    27    1
     2    17    16    1
     3    27    16   ar
     4    27    22   ar
     5    16    14   ar
     6    23    22    1
     7    22    10   ar
     8    14    15    1
     9    14     9   ar
    10    10     9   ar
    11    10    11    1
    12    26    25    1
    13     9     7    1
    14     6     5    1
    15    25     5   ar
    16    25    18   ar
    17     5     8   ar
    18    19    18    1
    19    18    29   ar
    20     7    12   ar
    21     7     1   ar
    22     8    12    1
    23     8    20   ar
    24    12     3   ar
    25     1    13   ar
    26    29    20   ar
    27    29    30    1
    28    20    21    1
    29    13     3   ar
    30    13    31    1
    31    36    34    1
    32    34    35    1
    33    34    31    1
    34    34    24    1
    35    31    33    1
    36    31    32    1
    37     4    24    2
    38    24     2    1
    39     2    37    1
