@<TRIPOS>MOLECULE
?
 33 34 0 0 0
SMALL
GASTEIGER

@<TRIPOS>ATOM
      1 O           8.0398    5.9686    3.3772 O.2     1  LIG1       -0.2449
      2 C           7.1518    6.4917   -1.5277 C.ar    1  LIG1       -0.0617
      3 H           7.1789    6.6282   -2.4472 H       1  LIG1        0.0618
      4 C           8.3226    6.4253   -0.8071 C.ar    1  LIG1       -0.0610
      5 H           9.1410    6.5119   -1.2414 H       1  LIG1        0.0618
      6 O           5.7207    7.5363    4.8135 O.2     1  LIG1       -0.2881
      7 C           8.2833    6.2290    0.5618 C.ar    1  LIG1       -0.0478
      8 H           9.0746    6.1935    1.0490 H       1  LIG1        0.0626
      9 C           7.0740    6.0875    1.2015 C.ar    1  LIG1        0.0590
     10 C           5.9023    6.1488    0.4715 C.ar    1  LIG1       -0.0478
     11 H           5.0832    6.0492    0.9008 H       1  LIG1        0.0626
     12 C           5.9447    6.3570   -0.8916 C.ar    1  LIG1       -0.0610
     13 H           5.1539    6.4051   -1.3797 H       1  LIG1        0.0618
     14 C           7.0761    5.8436    2.6660 C.2     1  LIG1        0.3398
     15 C           5.8001    5.1820    4.5298 C.3     1  LIG1        0.1626
     16 H           6.5088    4.5545    4.7818 H       1  LIG1        0.0816
     17 C           4.4479    4.5525    4.7661 C.3     1  LIG1       -0.0203
     18 H           4.3793    3.7417    4.2573 H       1  LIG1        0.0270
     19 H           3.7587    5.1624    4.4910 H       1  LIG1        0.0270
     20 H           4.3466    4.3544    5.6996 H       1  LIG1        0.0270
     21 C           5.9353    6.4632    5.3323 C.2     1  LIG1        0.2031
     22 C           6.2540    6.3607    6.7835 C.ar    1  LIG1        0.0212
     23 C           6.0324    7.4684    7.5837 C.ar    1  LIG1       -0.0511
     24 H           5.6699    8.2413    7.2147 H       1  LIG1        0.0625
     25 C           6.3462    7.4314    8.9281 C.ar    1  LIG1       -0.0611
     26 H           6.1715    8.1701    9.4666 H       1  LIG1        0.0618
     27 C           6.9169    6.3070    9.4719 C.ar    1  LIG1       -0.0617
     28 H           7.1597    6.2964   10.3702 H       1  LIG1        0.0618
     29 C           7.1291    5.2056    8.6970 C.ar    1  LIG1       -0.0611
     30 H           7.5022    4.4400    9.0704 H       1  LIG1        0.0618
     31 C           6.7914    5.2240    7.3588 C.ar    1  LIG1       -0.0511
     32 H           6.9263    4.4650    6.8384 H       1  LIG1        0.0625
     33 O           5.8728    5.4656    3.1206 O.3     1  LIG1       -0.4501
@<TRIPOS>BOND
     1     3     2    1
     2     2    12   ar
     3     2     4   ar
     4    13    12    1
     5     5     4    1
     6    12    10   ar
     7     4     7   ar
     8    10    11    1
     9    10     9   ar
    10     7     8    1
    11     7     9   ar
    12     9    14    1
    13    14    33    1
    14    14     1    2
    15    33    15    1
    16    18    17    1
    17    19    17    1
    18    15    17    1
    19    15    16    1
    20    15    21    1
    21    17    20    1
    22     6    21    2
    23    21    22    1
    24    22    31   ar
    25    22    23   ar
    26    32    31    1
    27    24    23    1
    28    31    29   ar
    29    23    25   ar
    30    29    30    1
    31    29    27   ar
    32    25    26    1
    33    25    27   ar
    34    27    28    1
