@<TRIPOS>MOLECULE
1,3 Dibenzoylpyrene
 50 55 0 0 0
SMALL
GASTEIGER

@<TRIPOS>ATOM
      1 C          -0.6164    4.4260    1.3547 C.ar    1  LIG1       -0.0389
      2 H          -0.8021    3.7650    0.7272 H       1  LIG1        0.0632
      3 C          -0.4800    5.7423    0.9277 C.ar    1  LIG1        0.0307
      4 C          -0.1285    6.7457    1.8582 C.ar    1  LIG1       -0.0058
      5 C           0.1343    8.1029    1.4751 C.ar    1  LIG1       -0.0527
      6 H           0.0074    8.3591    0.5906 H       1  LIG1        0.0624
      7 C           0.5609    9.0145    2.3706 C.ar    1  LIG1       -0.0534
      8 H           0.7413    9.8793    2.0811 H       1  LIG1        0.0624
      9 C           0.7445    8.6955    3.7477 C.ar    1  LIG1       -0.0167
     10 C           1.1661    9.6315    4.6957 C.ar    1  LIG1       -0.0540
     11 H           1.3492   10.5034    4.4297 H       1  LIG1        0.0624
     12 C           1.3133    9.2797    6.0188 C.ar    1  LIG1       -0.0606
     13 H           1.5844    9.9193    6.6373 H       1  LIG1        0.0618
     14 C           1.0649    7.9949    6.4348 C.ar    1  LIG1       -0.0540
     15 H           1.1658    7.7754    7.3328 H       1  LIG1        0.0624
     16 C           0.6641    7.0183    5.5300 C.ar    1  LIG1       -0.0167
     17 C           0.4335    5.6633    5.9210 C.ar    1  LIG1       -0.0534
     18 H           0.5436    5.4249    6.8134 H       1  LIG1        0.0624
     19 C           0.0620    4.7255    5.0371 C.ar    1  LIG1       -0.0527
     20 H          -0.0616    3.8508    5.3286 H       1  LIG1        0.0624
     21 C          -0.1483    5.0396    3.6523 C.ar    1  LIG1       -0.0058
     22 C          -0.4842    4.0668    2.6926 C.ar    1  LIG1        0.0307
     23 C           0.0609    6.3836    3.2215 C.ar    1  LIG1       -0.0011
     24 C           0.4858    7.3645    4.1660 C.ar    1  LIG1       -0.0024
     25 C          -0.7225    2.6389    3.0835 C.2     1  LIG1        0.1937
     26 C          -0.7317    6.0618   -0.5139 C.2     1  LIG1        0.1937
     27 C          -0.0316    5.2779   -1.5647 C.ar    1  LIG1        0.0223
     28 C           1.1181    4.5508   -1.2975 C.ar    1  LIG1       -0.0509
     29 H           1.4456    4.5044   -0.4280 H       1  LIG1        0.0625
     30 C           1.7794    3.8947   -2.3167 C.ar    1  LIG1       -0.0611
     31 H           2.5512    3.4096   -2.1330 H       1  LIG1        0.0618
     32 C           1.3000    3.9581   -3.6006 C.ar    1  LIG1       -0.0617
     33 H           1.7532    3.5222   -4.2863 H       1  LIG1        0.0618
     34 C           0.1625    4.6572   -3.8774 C.ar    1  LIG1       -0.0611
     35 H          -0.1660    4.6809   -4.7470 H       1  LIG1        0.0618
     36 C          -0.5050    5.3300   -2.8750 C.ar    1  LIG1       -0.0509
     37 H          -1.2716    5.8191   -3.0736 H       1  LIG1        0.0625
     38 C           0.0187    1.5705    2.3570 C.ar    1  LIG1        0.0223
     39 C          -0.4586    0.2702    2.3918 C.ar    1  LIG1       -0.0509
     40 H          -1.2527    0.0784    2.8354 H       1  LIG1        0.0625
     41 C           0.2460   -0.7416    1.7668 C.ar    1  LIG1       -0.0611
     42 H          -0.0817   -1.6117    1.7841 H       1  LIG1        0.0618
     43 C           1.4199   -0.4743    1.1250 C.ar    1  LIG1       -0.0617
     44 H           1.8881   -1.1625    0.7102 H       1  LIG1        0.0618
     45 C           1.9094    0.8011    1.0901 C.ar    1  LIG1       -0.0611
     46 H           2.7110    0.9780    0.6538 H       1  LIG1        0.0618
     47 C           1.2157    1.8305    1.7027 C.ar    1  LIG1       -0.0509
     48 H           1.5518    2.6970    1.6757 H       1  LIG1        0.0625
     49 O          -1.5038    2.3619    3.9741 O.2     1  LIG1       -0.2866
     50 O          -1.4981    6.9593   -0.8253 O.2     1  LIG1       -0.2866
@<TRIPOS>BOND
     1    35    34    1
     2    33    32    1
     3    34    32   ar
     4    34    36   ar
     5    32    30   ar
     6    37    36    1
     7    36    27   ar
     8    30    31    1
     9    30    28   ar
    10    27    28   ar
    11    27    26    1
    12    28    29    1
    13    50    26    2
    14    26     3    1
    15     6     5    1
    16    46    45    1
    17    44    43    1
    18     2     1    1
    19     3     1   ar
    20     3     4   ar
    21    45    43   ar
    22    45    47   ar
    23    43    41   ar
    24     1    22   ar
    25     5     4   ar
    26     5     7   ar
    27    48    47    1
    28    47    38   ar
    29    41    42    1
    30    41    39   ar
    31     4    23   ar
    32     8     7    1
    33    38    39   ar
    34    38    25    1
    35     7     9   ar
    36    39    40    1
    37    22    25    1
    38    22    21   ar
    39    25    49    2
    40    23    21   ar
    41    23    24   ar
    42    21    19   ar
    43     9    24   ar
    44     9    10   ar
    45    24    16   ar
    46    11    10    1
    47    10    12   ar
    48    19    20    1
    49    19    17   ar
    50    16    17   ar
    51    16    14   ar
    52    17    18    1
    53    12    14   ar
    54    12    13    1
    55    14    15    1
