@<TRIPOS>MOLECULE
?
 70 76 0 0 0
SMALL
GASTEIGER

@<TRIPOS>ATOM
      1 F           9.7525    1.7720   34.9223 F       1  LIG1       -0.1839
      2 F           4.2117    4.8567   26.7332 F       2  LIG2       -0.1839
      3 N           5.9526    1.1958   25.1269 N.ar    1  LIG1       -0.2436
      4 N           0.4514    4.8462   16.8878 N.ar    2  LIG2       -0.2436
      5 N          -2.3473    5.2978   16.8145 N.ar    2  LIG2       -0.2513
      6 N           7.8599    1.7276   33.7099 N.ar    1  LIG1       -0.2270
      7 N           3.1364    1.5346   25.0218 N.ar    1  LIG1       -0.2513
      8 N           2.3215    4.9200   25.5142 N.ar    2  LIG2       -0.2270
      9 C           5.2709    1.1249   23.9417 C.ar    1  LIG1        0.0899
     10 C          -0.2432    5.0946   17.9846 C.ar    2  LIG2        0.0897
     11 C           5.2344    1.4358   26.2145 C.ar    1  LIG1        0.0897
     12 C           1.5535    4.2319   19.4822 C.ar    2  LIG2       -0.0519
     13 H           1.8722    3.7191   18.7730 H       2  LIG2        0.0624
     14 C          -1.6442    5.0296   15.6635 C.ar    2  LIG2        0.0892
     15 C           1.7298    4.9200   21.7997 C.ar    2  LIG2       -0.0164
     16 C           7.9581    1.6596   31.3044 C.ar    1  LIG1        0.0004
     17 C           3.8649    1.3146   23.8793 C.ar    1  LIG1        0.0892
     18 C           5.9275    1.5138   27.5156 C.ar    1  LIG1        0.0019
     19 C           7.2561    1.6131   30.0006 C.ar    1  LIG1       -0.0164
     20 C           0.6293    5.7608   21.6032 C.ar    2  LIG2       -0.0534
     21 H           0.3160    6.2818   22.3075 H       2  LIG2        0.0624
     22 C           2.1783    4.1628   20.7094 C.ar    2  LIG2       -0.0534
     23 H           2.9127    3.6014   20.8162 H       2  LIG2        0.0624
     24 C           2.4243    4.8577   23.1067 C.ar    2  LIG2        0.0004
     25 C          -0.2416    4.8125   15.7118 C.ar    2  LIG2        0.0899
     26 C           3.8168    4.7605   23.1803 C.ar    2  LIG2       -0.0483
     27 H           4.3184    4.6982   22.3995 H       2  LIG2        0.0625
     28 C           0.4445    5.0652   19.2884 C.ar    2  LIG2        0.0019
     29 C           5.4774    2.3539   28.5392 C.ar    1  LIG1       -0.0519
     30 H           4.7303    2.8893   28.3976 H       1  LIG1        0.0624
     31 C           0.0041    5.8252   20.3737 C.ar    2  LIG2       -0.0519
     32 H          -0.7286    6.3880   20.2676 H       2  LIG2        0.0624
     33 C           7.0588    0.7299   27.7541 C.ar    1  LIG1       -0.0519
     34 H           7.3800    0.1712   27.0837 H       1  LIG1        0.0624
     35 C           0.4445    4.5394   14.5086 C.ar    2  LIG2       -0.0342
     36 H           1.3635    4.4017   14.5224 H       2  LIG2        0.0639
     37 C           5.9760    0.8572   22.7460 C.ar    1  LIG1       -0.0342
     38 H           6.8968    0.7257   22.7707 H       1  LIG1        0.0639
     39 C           9.9901    1.7124   32.5894 C.ar    1  LIG1       -0.0067
     40 H          10.9179    1.7226   32.6614 H       1  LIG1        0.0662
     41 C           6.1265    2.3991   29.7566 C.ar    1  LIG1       -0.0534
     42 H           5.8067    2.9619   30.4244 H       1  LIG1        0.0624
     43 C           9.1680    1.7363   33.7020 C.ar    1  LIG1        0.2132
     44 C           7.7051    0.7757   28.9725 C.ar    1  LIG1       -0.0534
     45 H           8.4523    0.2403   29.1137 H       1  LIG1        0.0624
     46 C           9.3561    1.6740   31.3724 C.ar    1  LIG1       -0.0483
     47 H           9.8576    1.6569   30.5886 H       1  LIG1        0.0625
     48 C           4.4472    4.7564   24.4013 C.ar    2  LIG2       -0.0067
     49 H           5.3716    4.6961   24.4788 H       2  LIG2        0.0662
     50 C           5.3150    0.7901   21.5553 C.ar    1  LIG1       -0.0596
     51 H           5.7869    0.6087   20.7735 H       1  LIG1        0.0618
     52 C           7.2625    1.6946   32.5106 C.ar    1  LIG1        0.0383
     53 H           6.3332    1.6946   32.4807 H       1  LIG1        0.0837
     54 C           3.6256    4.8468   25.5060 C.ar    2  LIG2        0.2132
     55 C          -2.3185    4.9604   14.4340 C.ar    2  LIG2       -0.0342
     56 H          -3.2360    5.1056   14.4008 H       2  LIG2        0.0639
     57 C          -0.2351    4.4764   13.3270 C.ar    2  LIG2       -0.0596
     58 H           0.2267    4.2963   12.5416 H       2  LIG2        0.0618
     59 C          -1.6550    5.3206   17.9199 C.ar    2  LIG2        0.0542
     60 H          -2.1056    5.4945   18.7139 H       2  LIG2        0.0851
     61 C           3.2069    1.2543   22.6370 C.ar    1  LIG1       -0.0342
     62 H           2.2880    1.3912   22.5900 H       1  LIG1        0.0639
     63 C           3.8139    1.5802   26.1347 C.ar    1  LIG1        0.0542
     64 H           3.3437    1.7144   26.9260 H       1  LIG1        0.0851
     65 C           1.7298    4.9269   24.3132 C.ar    2  LIG2        0.0383
     66 H           0.8014    4.9810   24.2817 H       2  LIG2        0.0837
     67 C          -1.6294    4.6804   13.2846 C.ar    2  LIG2       -0.0596
     68 H          -2.0818    4.6256   12.4726 H       2  LIG2        0.0618
     69 C           3.9187    0.9941   21.4991 C.ar    1  LIG1       -0.0596
     70 H           3.4795    0.9510   20.6815 H       1  LIG1        0.0618
@<TRIPOS>BOND
     1    68    67    1
     2    58    57    1
     3    67    57   ar
     4    67    55   ar
     5    57    35   ar
     6    56    55    1
     7    55    14   ar
     8    35    36    1
     9    35    25   ar
    10    14    25   ar
    11    14     5   ar
    12    25     4   ar
    13     5    59   ar
    14     4    10   ar
    15    59    10   ar
    16    59    60    1
    17    10    28    1
    18    13    12    1
    19    28    12   ar
    20    28    31   ar
    21    12    22   ar
    22    32    31    1
    23    31    20   ar
    24    70    69    1
    25    22    23    1
    26    22    15   ar
    27    51    50    1
    28    69    50   ar
    29    69    61   ar
    30    50    37   ar
    31    20    15   ar
    32    20    21    1
    33    15    24    1
    34    27    26    1
    35    62    61    1
    36    61    17   ar
    37    37    38    1
    38    37     9   ar
    39    24    26   ar
    40    24    65   ar
    41    26    48   ar
    42    17     9   ar
    43    17     7   ar
    44     9     3   ar
    45    66    65    1
    46    65     8   ar
    47    48    49    1
    48    48    54   ar
    49     7    63   ar
    50     3    11   ar
    51    54     8   ar
    52    54     2    1
    53    63    11   ar
    54    63    64    1
    55    11    18    1
    56    34    33    1
    57    18    33   ar
    58    18    29   ar
    59    33    44   ar
    60    30    29    1
    61    29    41   ar
    62    44    45    1
    63    44    19   ar
    64    41    19   ar
    65    41    42    1
    66    19    16    1
    67    47    46    1
    68    16    46   ar
    69    16    52   ar
    70    46    39   ar
    71    53    52    1
    72    52     6   ar
    73    39    40    1
    74    39    43   ar
    75    43     6   ar
    76    43     1    1
