@<TRIPOS>MOLECULE
N-(Butylcarbamoyl)-4-methylbenzenesulfonamide
 36 36 0 0 0
SMALL
GASTEIGER

@<TRIPOS>ATOM
      1 C           4.9036    3.7316    3.1507 C.3     1  LIG1       -0.0397
      2 H           4.2597    4.3709    3.5217 H       1  LIG1        0.0278
      3 H           5.2877    4.0963    2.3264 H       1  LIG1        0.0278
      4 H           5.6181    3.5729    3.8016 H       1  LIG1        0.0278
      5 C           4.2038    2.4338    2.8468 C.ar    1  LIG1       -0.0503
      6 C           4.3243    1.3401    3.7026 C.ar    1  LIG1       -0.0570
      7 H           4.8874    1.4011    4.4651 H       1  LIG1        0.0621
      8 C           3.6284    0.1576    3.4550 C.ar    1  LIG1       -0.0348
      9 H           3.7039   -0.5788    4.0507 H       1  LIG1        0.0637
     10 C           2.8252    0.0704    2.3268 C.ar    1  LIG1        0.1086
     11 C           2.7107    1.1446    1.4389 C.ar    1  LIG1       -0.0348
     12 H           2.1726    1.0719    0.6599 H       1  LIG1        0.0637
     13 C           3.3967    2.3195    1.7144 C.ar    1  LIG1       -0.0570
     14 H           3.3153    3.0580    1.1221 H       1  LIG1        0.0621
     15 C          -0.2489    0.0254    2.1210 C.2     1  LIG1        0.3189
     16 C          -1.7039    1.9687    1.9649 C.3     1  LIG1        0.0131
     17 H          -2.1046    1.6764    2.8221 H       1  LIG1        0.0462
     18 H          -2.4408    2.2365    1.3596 H       1  LIG1        0.0462
     19 C          -0.8004    3.1729    2.2186 C.3     1  LIG1       -0.0376
     20 H          -0.0505    2.8981    2.8031 H       1  LIG1        0.0280
     21 H          -0.4178    3.4777    1.3578 H       1  LIG1        0.0280
     22 C          -1.5447    4.3333    2.8734 C.3     1  LIG1       -0.0545
     23 H          -2.0074    4.0011    3.6833 H       1  LIG1        0.0263
     24 H          -0.8861    5.0153    3.1597 H       1  LIG1        0.0263
     25 C          -2.5628    4.9864    1.9608 C.3     1  LIG1       -0.0652
     26 H          -2.1260    5.2602    1.1276 H       1  LIG1        0.0230
     27 H          -2.9422    5.7727    2.4050 H       1  LIG1        0.0230
     28 H          -3.2784    4.3475    1.7595 H       1  LIG1        0.0230
     29 O           2.5621   -2.1097    0.8939 O.2     1  LIG1       -0.1499
     30 O           1.7935   -2.1248    3.2401 O.2     1  LIG1       -0.1499
     31 O          -0.2066    0.0507    3.3601 O.2     1  LIG1       -0.2512
     32 S           1.9563   -1.4235    2.0025 S.O2    1  LIG1        0.0756
     33 N           0.4973   -0.9339    1.4136 N.am    1  LIG1       -0.1693
     34 N          -0.9753    0.8490    1.3692 N.am    1  LIG1       -0.2982
     35 H          -0.8240    0.8503    0.5958 H       1  LIG1        0.1503
     36 H           0.4489   -0.8971    0.6319 H       1  LIG1        0.1781
@<TRIPOS>BOND
     1    35    34    1
     2    36    33    1
     3    12    11    1
     4    29    32    2
     5    14    13    1
     6    26    25    1
     7    21    19    1
     8    18    16    1
     9    34    16    1
    10    34    15   am
    11    33    32    1
    12    33    15   am
    13    11    13   ar
    14    11    10   ar
    15    13     5   ar
    16    28    25    1
    17    25    27    1
    18    25    22    1
    19    16    19    1
    20    16    17    1
    21    32    10    1
    22    32    30    2
    23    15    31    2
    24    19    20    1
    25    19    22    1
    26     3     1    1
    27    10     8   ar
    28     5     1    1
    29     5     6   ar
    30    22    24    1
    31    22    23    1
    32     1     2    1
    33     1     4    1
    34     8     6   ar
    35     8     9    1
    36     6     7    1
