@<TRIPOS>MOLECULE
?
 38 41 0 0 0
SMALL
GASTEIGER

@<TRIPOS>ATOM
      1 N           3.8270    9.6356    8.5662 N.ar    1  LIG1       -0.2200
      2 C           4.4779    9.8350    9.7481 C.ar    1  LIG1        0.1277
      3 C           4.4208   11.1715   10.1196 C.ar    1  LIG1        0.0801
      4 C           4.8803   11.9436   11.2048 C.ar    1  LIG1       -0.0352
      5 H           5.3862   11.5532   11.8798 H       1  LIG1        0.0639
      6 C           4.5743   13.2679   11.2530 C.ar    1  LIG1       -0.0583
      7 H           4.8827   13.7898   11.9583 H       1  LIG1        0.0619
      8 C           3.7867   13.8570   10.2308 C.ar    1  LIG1       -0.0451
      9 H           3.5662   14.7588   10.2849 H       1  LIG1        0.0632
     10 C           3.3558   13.1318    9.1879 C.ar    1  LIG1        0.0118
     11 H           2.8362   13.5280    8.5260 H       1  LIG1        0.0813
     12 N           3.6887   11.7900    9.1030 N.ar    1  LIG1       -0.2983
     13 C           3.3685   10.8157    8.1797 C.ar    1  LIG1        0.1465
     14 C           2.6334   11.0311    6.9296 C.ar    1  LIG1        0.0178
     15 C           2.7643   12.1788    6.1541 C.ar    1  LIG1       -0.0511
     16 H           3.3067   12.8766    6.4438 H       1  LIG1        0.0625
     17 C           2.0840   12.2845    4.9464 C.ar    1  LIG1       -0.0611
     18 H           2.1668   13.0575    4.4353 H       1  LIG1        0.0618
     19 C           1.2977   11.2621    4.5068 C.ar    1  LIG1       -0.0617
     20 H           0.8471   11.3400    3.6970 H       1  LIG1        0.0618
     21 C           1.1690   10.1156    5.2591 C.ar    1  LIG1       -0.0611
     22 H           0.6403    9.4167    4.9485 H       1  LIG1        0.0618
     23 C           1.8195    9.9968    6.4662 C.ar    1  LIG1       -0.0511
     24 H           1.7160    9.2255    6.9746 H       1  LIG1        0.0625
     25 S           5.1458    8.5291   10.6864 S.3     1  LIG1       -0.0677
     26 C           6.5907    8.0592    9.7757 C.ar    1  LIG1        0.0164
     27 C           7.1484    8.8285    8.7679 C.ar    1  LIG1       -0.0478
     28 H           6.7528    9.6358    8.5307 H       1  LIG1        0.0629
     29 C           8.2910    8.4043    8.1119 C.ar    1  LIG1       -0.0586
     30 H           8.6519    8.9300    7.4339 H       1  LIG1        0.0619
     31 C           8.9054    7.2129    8.4475 C.ar    1  LIG1       -0.0314
     32 H           9.6810    6.9317    8.0187 H       1  LIG1        0.0640
     33 C           8.3241    6.4582    9.4418 C.ar    1  LIG1        0.1272
     34 C           7.1821    6.8387   10.1137 C.ar    1  LIG1       -0.0177
     35 H           6.8151    6.2979   10.7747 H       1  LIG1        0.0651
     36 N           8.9212    5.1567    9.7890 N.pl3   1  LIG1        0.0565
     37 O          10.0398    4.9063    9.3721 O.2     1  LIG1       -0.1261
     38 O           8.2791    4.3875   10.4690 O.2     1  LIG1       -0.1261
@<TRIPOS>BOND
     1    20    19    1
     2    18    17    1
     3    19    17   ar
     4    19    21   ar
     5    17    15   ar
     6    22    21    1
     7    21    23   ar
     8    15    16    1
     9    15    14   ar
    10    23    14   ar
    11    23    24    1
    12    14    13    1
    13    30    29    1
    14    32    31    1
    15    29    31   ar
    16    29    27   ar
    17    13     1   ar
    18    13    12   ar
    19    31    33   ar
    20    11    10    1
    21    28    27    1
    22     1     2   ar
    23    27    26   ar
    24    12    10   ar
    25    12     3   ar
    26    10     8   ar
    27    37    36    2
    28    33    36    1
    29    33    34   ar
    30     2     3   ar
    31     2    25    1
    32    26    34   ar
    33    26    25    1
    34    36    38    2
    35    34    35    1
    36     3     4   ar
    37     8     9    1
    38     8     6   ar
    39     4     6   ar
    40     4     5    1
    41     6     7    1
