@<TRIPOS>MOLECULE
C6 H8 O3 S
 36 36 0 0 0
SMALL
GASTEIGER

@<TRIPOS>ATOM
      1 S           3.5783   -0.2299   10.3863 S.2     1  LIG1       -0.0128
      2 S           0.0168   10.1046    9.5775 S.2     2  LIG2       -0.0128
      3 O           3.4852    1.5640    8.5511 O.3     1  LIG1       -0.4710
      4 O           2.7881    3.6036   10.2335 O.3     1  LIG1       -0.4506
      5 O           2.1836    4.7822    8.4693 O.2     1  LIG1       -0.2466
      6 O          -0.5690    6.5387    8.3176 O.3     2  LIG2       -0.4506
      7 O           0.0107    7.7752   10.6748 O.3     2  LIG2       -0.4710
      8 O          -1.3855    4.8596    9.4952 O.2     2  LIG2       -0.2466
      9 C           3.5620    1.3099    9.8598 C.2     1  LIG1        0.1829
     10 C           3.6545    2.5423   10.7411 C.3     1  LIG1        0.1639
     11 H           4.5990    2.8708   10.7306 H       1  LIG1        0.0819
     12 C           2.8251    3.8742    8.9163 C.2     1  LIG1        0.3487
     13 C           3.7014    2.9441    8.1070 C.3     1  LIG1        0.1937
     14 H           4.6595    3.1879    8.2582 H       1  LIG1        0.0849
     15 C           3.2412    2.3157   12.1729 C.3     1  LIG1       -0.0199
     16 H           3.3138    3.1569   12.6712 H       1  LIG1        0.0270
     17 H           3.8280    1.6441   12.5783 H       1  LIG1        0.0270
     18 H           2.3144    1.9994   12.1990 H       1  LIG1        0.0270
     19 C           3.4162    2.9816    6.6309 C.3     1  LIG1       -0.0171
     20 H           3.9816    2.3255    6.1730 H       1  LIG1        0.0271
     21 H           3.6089    3.8782    6.2840 H       1  LIG1        0.0271
     22 H           2.4731    2.7664    6.4750 H       1  LIG1        0.0271
     23 C           0.1337    8.4860    9.5442 C.2     2  LIG2        0.1829
     24 C           0.3926    7.6310    8.3191 C.3     2  LIG2        0.1639
     25 H           1.3158    7.2503    8.3795 H       2  LIG2        0.0819
     26 C           0.2425    8.3417    7.0001 C.3     2  LIG2       -0.0199
     27 H           0.3720    7.7027    6.2685 H       2  LIG2        0.0270
     28 H           0.9125    9.0541    6.9343 H       2  LIG2        0.0270
     29 H          -0.6551    8.7305    6.9395 H       2  LIG2        0.0270
     30 C          -0.6672    5.8125    9.4389 C.2     2  LIG2        0.3487
     31 C           0.1821    6.3227   10.5873 C.3     2  LIG2        0.1937
     32 H           1.1430    6.1092   10.4131 H       2  LIG2        0.0849
     33 C          -0.2290    5.7399   11.9135 C.3     2  LIG2       -0.0171
     34 H           0.2966    6.1548   12.6299 H       2  LIG2        0.0271
     35 H          -0.0690    4.7732   11.9099 H       2  LIG2        0.0271
     36 H          -1.1814    5.9127   12.0648 H       2  LIG2        0.0271
@<TRIPOS>BOND
     1    20    19    1
     2    27    26    1
     3    21    19    1
     4    22    19    1
     5    19    13    1
     6    28    26    1
     7    29    26    1
     8    26    24    1
     9    13    14    1
    10    13     3    1
    11    13    12    1
    12     6    24    1
    13     6    30    1
    14    24    25    1
    15    24    23    1
    16     5    12    2
    17     3     9    1
    18    12     4    1
    19    30     8    2
    20    30    31    1
    21    23     2    2
    22    23     7    1
    23     9     1    2
    24     9    10    1
    25     4    10    1
    26    32    31    1
    27    31     7    1
    28    31    33    1
    29    11    10    1
    30    10    15    1
    31    35    33    1
    32    33    36    1
    33    33    34    1
    34    15    18    1
    35    15    17    1
    36    15    16    1
