@<TRIPOS>MOLECULE
DW-X-8-DOD [2-amino-5-(iodoethynyl)-pyrimidine]2, 2,3,5,6-Me4-pyrazine
 25 24 0 0 0
SMALL
GASTEIGER

@<TRIPOS>ATOM
      1 N           4.5865   -0.6574    7.2255 N.2     1  LIG1       -0.2755
      2 C           4.5407   -0.3635    8.5327 C.2     1  LIG1        0.0541
      3 C           5.5082   -1.5278    6.7786 C.3     1  LIG1        0.1132
      4 C           3.4964    0.6078    8.9892 C.3     1  LIG1       -0.0210
      5 H           3.9304    1.3976    9.3731 H       1  LIG1        0.0293
      6 H           2.9303    0.1835    9.6679 H       1  LIG1        0.0293
      7 H           2.9443    0.8770    8.2262 H       1  LIG1        0.0293
      8 C           5.5212   -1.8108    5.3151 C.3     1  LIG1       -0.0351
      9 H           6.2170   -2.4717    5.1158 H       1  LIG1        0.0254
     10 H           5.7062   -0.9835    4.8242 H       1  LIG1        0.0254
     11 H           4.6483   -2.1638    5.0429 H       1  LIG1        0.0254
     12 N          -2.1576    2.8135    1.2168 N.ar    2  LIG2       -0.2219
     13 C          -1.8648    4.0911    0.9023 C.ar    2  LIG2        0.2125
     14 N          -2.7588    4.7750    0.1576 N.pl3   2  LIG2       -0.3275
     15 H          -3.5031    4.3853   -0.1053 H       2  LIG2        0.1452
     16 H          -2.5981    5.6113   -0.0648 H       2  LIG2        0.1452
     17 N          -0.7446    4.7502    1.2958 N.ar    2  LIG2       -0.2219
     18 C           0.0958    4.0669    2.0528 C.ar    2  LIG2        0.0480
     19 H           0.8898    4.4995    2.3441 H       2  LIG2        0.0844
     20 C          -0.1162    2.7486    2.4491 C.ar    2  LIG2        0.0619
     21 C          -1.2943    2.1674    1.9726 C.ar    2  LIG2        0.0480
     22 H          -1.4805    1.2650    2.2048 H       2  LIG2        0.0844
     23 C           0.7974    2.0452    3.2937 C.1     2  LIG2       -0.0522
     24 C           1.5462    1.4692    4.0209 C.1     2  LIG2       -0.0246
     25 I           2.8051    0.5515    5.2874 I       2  LIG2        0.0184
@<TRIPOS>BOND
     1    15    14    1
     2    16    14    1
     3    14    13    1
     4    13    12   ar
     5    13    17   ar
     6    12    21   ar
     7    17    18   ar
     8    21    22    1
     9    21    20   ar
    10    18    19    1
    11    18    20   ar
    12    20    23    1
    13    23    24    3
    14    24    25    1
    15    10     8    1
    16    11     8    1
    17     9     8    1
    18     8     3    1
    19     3     1    1
    20     1     2    2
    21     7     4    1
    22     2     4    1
    23     4     5    1
    24     4     6    1
