@<TRIPOS>MOLECULE
DW-X-4 [2-amino-5-(iodoethynyl)-pyrimidine]2, 1,2-bis(4-pyridyl)ethylene
 26 26 0 0 0
SMALL
GASTEIGER

@<TRIPOS>ATOM
      1 N          12.7131    3.5706    0.1346 N.ar    1  LIG1       -0.2632
      2 C          13.4018    4.1728   -0.8230 C.ar    1  LIG1        0.0278
      3 H          14.2625    4.5185   -0.6138 H       1  LIG1        0.0829
      4 C          12.9270    4.3230   -2.1202 C.ar    1  LIG1       -0.0401
      5 H          13.4556    4.7653   -2.7729 H       1  LIG1        0.0635
      6 C          11.6797    3.8257   -2.4583 C.ar    1  LIG1       -0.0402
      7 C          10.9629    3.1804   -1.4505 C.ar    1  LIG1       -0.0401
      8 H          10.1062    2.8098   -1.6297 H       1  LIG1        0.0635
      9 C          11.5152    3.0876   -0.1889 C.ar    1  LIG1        0.0278
     10 H          11.0112    2.6528    0.4889 H       1  LIG1        0.0829
     11 C          11.1871    3.9796   -3.8294 C.3     1  LIG1       -0.0010
     12 H          11.7608    4.4113   -4.4505 H       1  LIG1        0.0361
     13 N          16.5996    2.5940    8.7965 N.ar    2  LIG2       -0.2219
     14 C          16.8316    3.8023    9.3622 C.ar    2  LIG2        0.2125
     15 N          17.4183    3.8098   10.5638 N.pl3   2  LIG2       -0.3275
     16 H          17.7282    4.5132   10.8079 H       2  LIG2        0.1452
     17 H          17.7844    3.1170   10.7917 H       2  LIG2        0.1452
     18 N          16.4883    4.9895    8.8197 N.ar    2  LIG2       -0.2219
     19 C          15.8831    4.9502    7.6401 C.ar    2  LIG2        0.0480
     20 H          15.6370    5.7729    7.2331 H       2  LIG2        0.0844
     21 C          15.5897    3.7630    6.9663 C.ar    2  LIG2        0.0619
     22 C          15.9938    2.5955    7.6174 C.ar    2  LIG2        0.0480
     23 H          15.8269    1.7615    7.1950 H       2  LIG2        0.0844
     24 C          14.9895    3.7230    5.6756 C.1     2  LIG2       -0.0522
     25 C          14.5017    3.6355    4.5867 C.1     2  LIG2       -0.0246
     26 I          13.7346    3.5102    2.7259 I       2  LIG2        0.0184
@<TRIPOS>BOND
     1    12    11    1
     2    11     6    1
     3     5     4    1
     4     6     4   ar
     5     6     7   ar
     6     4     2   ar
     7     8     7    1
     8     7     9   ar
     9     2     3    1
    10     2     1   ar
    11     9     1   ar
    12     9    10    1
    13    26    25    1
    14    25    24    3
    15    24    21    1
    16    21    22   ar
    17    21    19   ar
    18    23    22    1
    19    20    19    1
    20    22    13   ar
    21    19    18   ar
    22    13    14   ar
    23    18    14   ar
    24    14    15    1
    25    15    17    1
    26    15    16    1
