@<TRIPOS>MOLECULE
AP/B18C6 cocrystal
 56 52 0 0 0
SMALL
GASTEIGER

@<TRIPOS>ATOM
      1 CL          2.6785   -0.2311    5.4300 Cl      1  LIG1        0.1011
      2 O           4.8860    3.4804    9.1181 O.3     1  LIG1       -0.4860
      3 O           3.2717    4.8754    7.6324 O.3     1  LIG1       -0.4860
      4 O           4.0286    1.1774   10.4742 O.3     1  LIG1       -0.3742
      5 O           0.5800    4.1322    7.1333 O.3     1  LIG1       -0.3742
      6 N           2.5537    2.1431    8.1394 N.4     2  LIG2        0.2099
      7 O          -0.2401    1.6642    8.2528 O.3     1  LIG1       -0.3752
      8 O           3.6729   -0.0507    6.4462 O.3     3  HOH3        0.0000
      9 O           1.8548    0.8793    5.3675 O.3     4  HOH4        0.0000
     10 O           1.3114    0.5206   10.3000 O.3     1  LIG1       -0.3752
     11 C           5.2202    4.8078    8.9684 C.ar    1  LIG1        0.1620
     12 C           4.3426    5.5659    8.1706 C.ar    1  LIG1        0.1620
     13 C           5.2987    1.2638    9.8390 C.3     1  LIG1        0.0818
     14 H           5.2260    0.9697    8.9168 H       1  LIG1        0.0594
     15 H           5.9331    0.6875   10.2928 H       1  LIG1        0.0594
     16 C           5.7756    2.6687    9.8810 C.3     1  LIG1        0.1130
     17 H           5.8017    2.9807   10.8002 H       1  LIG1        0.0720
     18 H           6.6712    2.7253    9.5156 H       1  LIG1        0.0720
     19 C           6.3106    5.4139    9.5374 C.ar    1  LIG1       -0.0163
     20 H           6.8884    4.9201   10.0724 H       1  LIG1        0.0655
     21 C           4.5878    6.8992    7.9700 C.ar    1  LIG1       -0.0163
     22 H           4.0039    7.4069    7.4539 H       1  LIG1        0.0655
     23 C          -0.4616    3.2986    6.6043 C.3     1  LIG1        0.0711
     24 H          -0.0843    2.6538    5.9851 H       1  LIG1        0.0583
     25 H          -1.1040    3.8431    6.1214 H       1  LIG1        0.0583
     26 C           2.4038    5.5987    6.7492 C.3     1  LIG1        0.1130
     27 H           2.9254    6.0279    6.0533 H       1  LIG1        0.0720
     28 H           1.9305    6.2862    7.2437 H       1  LIG1        0.0720
     29 C           1.4327    4.6538    6.1417 C.3     1  LIG1        0.0818
     30 H           0.9081    5.1138    5.4690 H       1  LIG1        0.0594
     31 H           1.9112    3.9295    5.7097 H       1  LIG1        0.0594
     32 C           6.5560    6.7621    9.3184 C.ar    1  LIG1       -0.0581
     33 H           7.2995    7.1675    9.7012 H       1  LIG1        0.0619
     34 C           5.7054    7.4934    8.5384 C.ar    1  LIG1       -0.0581
     35 H           5.8782    8.3945    8.3862 H       1  LIG1        0.0619
     36 O           3.3092   -0.3954    4.2293 O.3     5  HOH5        0.0000
     37 C          -0.7574    0.8147    9.2431 C.3     1  LIG1        0.0711
     38 C          -1.1382    2.5932    7.7105 C.3     1  LIG1        0.0711
     39 H          -1.4118    3.2271    8.3920 H       1  LIG1        0.0583
     40 H          -1.9293    2.1381    7.3814 H       1  LIG1        0.0583
     41 O           1.8964   -1.3155    5.6618 O.3     1  LIG1       -0.1011
     42 C           3.5518   -0.1669   10.5190 C.3     1  LIG1        0.0711
     43 H           3.5445   -0.5405    9.6244 H       1  LIG1        0.0583
     44 H           4.1446   -0.7054   11.0670 H       1  LIG1        0.0583
     45 C           0.2535   -0.0934    9.7418 C.3     1  LIG1        0.0711
     46 H          -0.1521   -0.6786   10.4015 H       1  LIG1        0.0583
     47 H           0.5642   -0.6478    9.0096 H       1  LIG1        0.0583
     48 C           2.2366   -0.2057   11.0612 C.3     1  LIG1        0.0711
     49 H           1.9446   -1.1287   11.1163 H       1  LIG1        0.0583
     50 H           2.2558    0.1540   11.9616 H       1  LIG1        0.0583
     51 H           2.9051    1.4605    7.5684 H       2  LIG2        0.1975
     52 H           2.9650    2.9807    7.9744 H       2  LIG2        0.1975
     53 H           2.8005    1.8977    9.0328 H       2  LIG2        0.1975
     54 H          -1.4466    0.4173    8.9023 H       1  LIG1        0.0583
     55 H          -0.7908    1.2022   10.0912 H       1  LIG1        0.0583
     56 H           1.7538    2.4044    8.1629 H       2  LIG2        0.1975
@<TRIPOS>BOND
     1     1    41    1
     2    30    29    1
     3    31    29    1
     4    24    23    1
     5    27    26    1
     6    25    23    1
     7    29    26    1
     8    29     5    1
     9    23     5    1
    10    23    38    1
    11    26    28    1
    12    26     3    1
    13    40    38    1
    14    22    21    1
    15    51     6    1
    16     3    12    1
    17    38     7    1
    18    38    39    1
    19    21    12   ar
    20    21    34   ar
    21    52     6    1
    22     6    56    1
    23     6    53    1
    24    12    11   ar
    25     7    37    1
    26    35    34    1
    27    34    32   ar
    28    54    37    1
    29    14    13    1
    30    11     2    1
    31    11    19   ar
    32    47    45    1
    33     2    16    1
    34    37    45    1
    35    37    55    1
    36    32    19   ar
    37    32    33    1
    38    18    16    1
    39    19    20    1
    40    43    42    1
    41    45    10    1
    42    45    46    1
    43    13    16    1
    44    13    15    1
    45    13     4    1
    46    16    17    1
    47    10    48    1
    48     4    42    1
    49    42    48    1
    50    42    44    1
    51    48    49    1
    52    48    50    1
