@<TRIPOS>MOLECULE
?
 25 23 0 0 0
SMALL
GASTEIGER

@<TRIPOS>ATOM
      1 O           6.2167    1.4949    1.5930 O.co2   1  VAL1       -0.2400
      2 OXT         5.2882    1.5826    3.6282 O.co2   1  VAL1       -0.2400
      3 O          24.6893    5.1090    2.8765 O.3     1  LIG1       -0.4804
      4 H          25.4379    5.1777    3.2019 H       1  LIG1        0.2951
      5 O          24.0732    6.0490    4.7987 O.2     1  LIG1       -0.2507
      6 C          23.8060    5.5373    3.7274 C.2     1  LIG1        0.3095
      7 C          22.3942    5.4094    3.3006 C.3     1  LIG1        0.0835
      8 H          21.7384    5.3253    3.9547 H       1  LIG1        0.0430
      9 N           4.2186    0.0431    0.5868 N.4     1  VAL1        0.2291
     10 H1          4.6334    0.5724    0.0027 H       1  VAL1        0.2003
     11 H2          3.4474   -0.2354    0.2401 H       1  VAL1        0.2003
     12 H3          4.7335   -0.6594    0.7677 H       1  VAL1        0.2003
     13 CA          3.9522    0.8070    1.8501 C.3     1  VAL1        0.0809
     14 HA          3.5837    0.1762    2.5042 H       1  VAL1        0.0972
     15 C           5.2714    1.3319    2.4092 C.2     1  VAL1        0.4029
     16 CB          2.9277    1.9430    1.6751 C.3     1  VAL1        0.0070
     17 HB          2.9779    2.4861    2.4898 H       1  VAL1        0.0356
     18 CG1         3.2425    2.8728    0.5260 C.3     1  VAL1       -0.0570
     19 HG11        3.1380    2.4028   -0.3046 H       1  VAL1        0.0234
     20 HG12        4.1476    3.1850    0.6055 H       1  VAL1        0.0234
     21 HG13        2.6428    3.6221    0.5468 H       1  VAL1        0.0234
     22 CG2         1.5060    1.4203    1.5994 C.3     1  VAL1       -0.0570
     23 HG21        0.8986    2.1579    1.5012 H       1  VAL1        0.0234
     24 HG22        1.2978    0.9401    2.4039 H       1  VAL1        0.0234
     25 HG23        1.4216    0.8333    0.8450 H       1  VAL1        0.0234
@<TRIPOS>BOND
     1    19    18    1
     2    10     9    1
     3    11     9    1
     4    18    21    1
     5    18    20    1
     6    18    16    1
     7     9    12    1
     8     9    13    1
     9    25    22    1
    10    23    22    1
    11     1    15   ar
    12    22    16    1
    13    22    24    1
    14    16    13    1
    15    16    17    1
    16    13    15    1
    17    13    14    1
    18    15     2   ar
    19     3     4    1
    20     3     6    1
    21     7     6    1
    22     7     8    1
    23     6     5    2
