@<TRIPOS>MOLECULE
?
 32 33 0 0 0
SMALL
GASTEIGER

@<TRIPOS>ATOM
      1 O           0.7251    7.0234    0.5649 O.2     1  LIG1       -0.2375
      2 O           2.3902    3.6876    7.0511 O.3     1  LIG1       -0.4951
      3 O           5.5744    5.8956    3.1501 O.3     1  LIG1       -0.5062
      4 H           5.1810    6.3674    2.6080 H       1  LIG1        0.2922
      5 N           2.7532    7.6841   -0.3177 N.am    1  LIG1       -0.1563
      6 N           4.1938    6.9271    1.2077 N.2     1  LIG1       -0.0387
      7 C           1.9400    7.1006    0.6274 C.2     1  LIG1        0.3781
      8 C           3.2903    5.4226    3.8922 C.ar    1  LIG1        0.0242
      9 C           4.0592    7.5510    0.0728 C.2     1  LIG1        0.2938
     10 C           2.8949    6.6086    1.6512 C.2     1  LIG1        0.2626
     11 C           3.0919    4.2639    6.0354 C.ar    1  LIG1        0.1209
     12 C           4.6844    5.3953    4.0467 C.ar    1  LIG1        0.1243
     13 C           2.5146    4.8522    4.9248 C.ar    1  LIG1       -0.0092
     14 H           1.5870    4.8736    4.8564 H       1  LIG1        0.0661
     15 C           5.2317    4.8189    5.1801 C.ar    1  LIG1       -0.0161
     16 H           6.1565    4.8118    5.2793 H       1  LIG1        0.0655
     17 C           2.5283    5.9788    2.7772 C.2     1  LIG1        0.0075
     18 H           1.6089    5.8766    2.8655 H       1  LIG1        0.0670
     19 C           4.4628    4.2663    6.1516 C.ar    1  LIG1       -0.0165
     20 H           4.8650    3.8860    6.8996 H       1  LIG1        0.0655
     21 C           2.2382    8.3175   -1.5320 C.3     1  LIG1        0.0778
     22 H           1.5733    7.7507   -1.9314 H       1  LIG1        0.0694
     23 H           2.9579    8.4542   -2.1520 H       1  LIG1        0.0694
     24 H           1.8428    9.1637   -1.3092 H       1  LIG1        0.0694
     25 C           0.9727    3.6115    6.9188 C.3     1  LIG1        0.0788
     26 H           0.7511    3.1540    6.1046 H       1  LIG1        0.0660
     27 H           0.6047    4.4969    6.8989 H       1  LIG1        0.0660
     28 H           0.6074    3.1302    7.6653 H       1  LIG1        0.0660
     29 C           5.1879    8.0597   -0.7414 C.3     1  LIG1        0.0397
     30 H           5.1441    7.6794   -1.6218 H       1  LIG1        0.0351
     31 H           6.0183    7.8113   -0.3273 H       1  LIG1        0.0351
     32 H           5.1331    9.0151   -0.8032 H       1  LIG1        0.0351
@<TRIPOS>BOND
     1    23    21    1
     2    22    21    1
     3    30    29    1
     4    21    24    1
     5    21     5    1
     6    32    29    1
     7    29    31    1
     8    29     9    1
     9     5     9    1
    10     5     7   am
    11     9     6    2
    12     1     7    2
    13     7    10    1
    14     6    10    1
    15    10    17    2
    16     4     3    1
    17    17    18    1
    18    17     8    1
    19     3    12    1
    20     8    12   ar
    21     8    13   ar
    22    12    15   ar
    23    14    13    1
    24    13    11   ar
    25    15    16    1
    26    15    19   ar
    27    11    19   ar
    28    11     2    1
    29    26    25    1
    30    19    20    1
    31    27    25    1
    32    25     2    1
    33    25    28    1
