@<TRIPOS>MOLECULE
?
 78 78 0 0 0
SMALL
GASTEIGER

@<TRIPOS>ATOM
      1 S          -0.5043    6.6366   10.1311 S.3     1  LIG1        0.1263
      2 S           4.6058    9.4407    7.7217 S.3     2  LIG2        0.1263
      3 O           3.2653    9.2396    8.2646 O.2     2  LIG2       -0.1434
      4 O           3.4448    5.9798    8.2399 O.2     2  LIG2       -0.2525
      5 O          -1.4538    7.7221    9.8342 O.2     1  LIG1       -0.1434
      6 F           0.0246   11.6274    0.8038 F       1  LIG1       -0.1659
      7 F           3.2927   -0.0981   12.1191 F       2  LIG2       -0.1659
      8 O           5.5585    9.7640    8.8011 O.3     2  LIG2       -0.0460
      9 O          -1.1982    5.4256   10.5649 O.2     1  LIG1       -0.1434
     10 O           0.5644    7.0685   11.0164 O.3     1  LIG1       -0.0460
     11 O          -0.9212    7.8274    6.6770 O.2     1  LIG1       -0.2525
     12 F           2.9343    1.1141   13.8486 F       2  LIG2       -0.1659
     13 F           0.7686   13.3571    1.8138 F       1  LIG1       -0.1659
     14 O           4.6553   10.3738    6.6190 O.2     2  LIG2       -0.1434
     15 F           1.4186    0.8989   12.3526 F       2  LIG2       -0.1659
     16 F          -1.3088   12.8524    1.9358 F       1  LIG1       -0.1659
     17 N           5.5071    6.9369    8.0925 N.am    2  LIG2       -0.2779
     18 H           6.3156    6.9357    8.3854 H       2  LIG2        0.1519
     19 N           5.1331    5.2842    9.6251 N.am    2  LIG2       -0.2694
     20 H           5.9550    5.4218    9.8389 H       2  LIG2        0.1564
     21 N           0.8986    7.3052    7.9354 N.am    1  LIG1       -0.2779
     22 H           1.6997    7.5186    8.1623 H       1  LIG1        0.1519
     23 N           1.0277    9.0176    6.4194 N.am    1  LIG1       -0.2694
     24 H           1.8059    9.1413    6.7643 H       1  LIG1        0.1564
     25 N           4.8707    8.5190   11.1479 N.pl3   3  LIG3       -0.3269
     26 H           5.0409    9.0062   10.4593 H       3  LIG3        0.1510
     27 N          -0.6942   10.2785    9.0554 N.pl3   4  LIG4       -0.3269
     28 C           0.2489    6.1912    8.5661 C.3     1  LIG1        0.1615
     29 H           0.8994    5.4867    8.7154 H       1  LIG1        0.0733
     30 H          -0.4343    5.8431    7.9722 H       1  LIG1        0.0733
     31 C           4.6096    6.0631    8.6225 C.2     2  LIG2        0.3051
     32 C           5.1417    7.8604    7.0594 C.3     2  LIG2        0.1615
     33 H           4.4252    7.4780    6.5293 H       2  LIG2        0.0733
     34 H           5.9028    8.0017    6.4739 H       2  LIG2        0.0733
     35 C           0.6725    9.8423    5.3454 C.ar    1  LIG1        0.0348
     36 C           3.7148    7.8471   11.1945 C.2     3  LIG3       -0.0101
     37 H           3.1074    7.9148   10.4923 H       3  LIG3        0.0778
     38 C           0.2503    8.0269    6.9776 C.2     1  LIG1        0.3051
     39 C           3.2890    2.2251   11.7986 C.ar    2  LIG2        0.0549
     40 C           4.4494    4.2849   10.3313 C.ar    2  LIG2        0.0348
     41 C           5.7797    8.4585   12.1453 C.2     3  LIG3       -0.0101
     42 H           6.5711    8.9450   12.0870 H       3  LIG3        0.0778
     43 C           0.1956   11.4904    3.1461 C.ar    1  LIG1        0.0549
     44 C          -0.3606    9.5390    4.4512 C.ar    1  LIG1       -0.0399
     45 H          -0.8912    8.7867    4.5861 H       1  LIG1        0.0636
     46 C           3.4250    7.0575   12.2812 C.2     3  LIG3       -0.0625
     47 H           2.6199    6.5953   12.3260 H       3  LIG3        0.0591
     48 C          -1.0459   11.3014    8.2732 C.2     4  LIG4       -0.0101
     49 H          -1.8729   11.3054    7.8468 H       4  LIG4        0.0778
     50 C           4.9473    3.9380   11.5843 C.ar    2  LIG2       -0.0399
     51 H           5.6722    4.4043   11.9339 H       2  LIG2        0.0636
     52 C           1.4390   10.9930    5.1346 C.ar    1  LIG1       -0.0399
     53 H           2.1152   11.2116    5.7346 H       1  LIG1        0.0636
     54 C           4.3495    6.9601   13.3100 C.3     3  LIG3        0.0078
     55 H           4.1765    6.4143   14.0421 H       3  LIG3        0.0395
     56 C          -0.5881   10.3651    3.3672 C.ar    1  LIG1       -0.0484
     57 H          -1.2764   10.1641    2.7762 H       1  LIG1        0.0624
     58 C           1.3670   11.2623    9.5899 C.2     4  LIG4       -0.0625
     59 H           2.1729   11.2468   10.0527 H       4  LIG4        0.0591
     60 C           2.7702    2.5858   10.5653 C.ar    2  LIG2       -0.0484
     61 H           2.0246    2.1380   10.2336 H       2  LIG2        0.0624
     62 C           5.5302    7.6774   13.2424 C.2     3  LIG3       -0.0625
     63 H           6.1490    7.6297   13.9352 H       3  LIG3        0.0591
     64 C           3.3405    3.5981    9.8230 C.ar    2  LIG2       -0.0399
     65 H           2.9918    3.8228    8.9913 H       2  LIG2        0.0636
     66 C          -0.1713   12.3514    8.1055 C.2     4  LIG4       -0.0625
     67 H          -0.3957   13.0685    7.5590 H       4  LIG4        0.0591
     68 C           0.4645   10.2284    9.7179 C.2     4  LIG4       -0.0101
     69 H           0.6613    9.5006   10.2626 H       4  LIG4        0.0778
     70 C           4.3829    2.9129   12.3155 C.ar    2  LIG2       -0.0484
     71 H           4.7308    2.6840   13.1471 H       2  LIG2        0.0624
     72 C           1.0523   12.3229    8.7620 C.3     4  LIG4        0.0078
     73 H           1.6599   13.0177    8.6442 H       4  LIG4        0.0395
     74 C           1.2046   11.8060    4.0454 C.ar    1  LIG1       -0.0484
     75 H           1.7224   12.5677    3.9142 H       1  LIG1        0.0624
     76 C          -0.0736   12.3287    1.9404 C.3     1  LIG1        0.4174
     77 C           2.7337    1.0478   12.5253 C.3     2  LIG2        0.4174
     78 H          -1.1850    9.6710    9.1484 H       4  LIG4        0.1510
@<TRIPOS>BOND
     1     6    76    1
     2    13    76    1
     3    16    76    1
     4    76    43    1
     5    57    56    1
     6    43    56   ar
     7    43    74   ar
     8    56    44   ar
     9    75    74    1
    10    74    52   ar
    11    44    45    1
    12    44    35   ar
    13    52    35   ar
    14    52    53    1
    15    35    23    1
    16    23    24    1
    17    23    38   am
    18    34    32    1
    19    33    32    1
    20    14     2    2
    21    11    38    2
    22    38    21   am
    23    32     2    1
    24    32    17    1
    25    67    66    1
    26     2     3    2
    27     2     8    1
    28    49    48    1
    29    21    22    1
    30    21    28    1
    31    30    28    1
    32    17    18    1
    33    17    31   am
    34    66    48    2
    35    66    72    1
    36     4    31    2
    37    48    27    1
    38    28    29    1
    39    28     1    1
    40    31    19   am
    41    73    72    1
    42    72    58    1
    43    65    64    1
    44    27    78    1
    45    27    68    1
    46    58    68    2
    47    58    59    1
    48    19    20    1
    49    19    40    1
    50    68    69    1
    51    64    40   ar
    52    64    60   ar
    53     5     1    2
    54     1     9    2
    55     1    10    1
    56    61    60    1
    57    40    50   ar
    58    26    25    1
    59    37    36    1
    60    60    39   ar
    61    25    36    1
    62    25    41    1
    63    36    46    2
    64    50    51    1
    65    50    70   ar
    66    39    70   ar
    67    39    77    1
    68    42    41    1
    69     7    77    1
    70    41    62    2
    71    46    47    1
    72    46    54    1
    73    70    71    1
    74    15    77    1
    75    77    12    1
    76    62    54    1
    77    62    63    1
    78    54    55    1
