@<TRIPOS>MOLECULE
?
 90 89 0 0 0
SMALL
GASTEIGER

@<TRIPOS>ATOM
      1 S           5.0953    4.2039    1.1264 S.2     1  LIG1       -0.0573
      2 O           4.6560    5.4756    3.5144 O.2     1  LIG1       -0.2521
      3 N           4.7965    1.7563    1.8189 N.ar    1  LIG1       -0.2327
      4 N           4.3715    3.2266    3.5755 N.am    1  LIG1       -0.2482
      5 N           3.9129    4.4670    5.4338 N.am    1  LIG1       -0.2686
      6 C           3.6678    5.6071    6.2345 C.ar    1  LIG1        0.0425
      7 C           3.2499    6.7841    5.6870 C.ar    1  LIG1       -0.0398
      8 H           3.1552    6.8619    4.7666 H       1  LIG1        0.0636
      9 C           2.9624    7.8810    6.5210 C.ar    1  LIG1       -0.0594
     10 H           2.6971    8.6883    6.1442 H       1  LIG1        0.0618
     11 C           3.0679    7.7736    7.8691 C.ar    1  LIG1       -0.0539
     12 H           2.8404    8.5014    8.4029 H       1  LIG1        0.0624
     13 C           3.5106    6.5933    8.4736 C.ar    1  LIG1       -0.0161
     14 C           3.8423    5.4780    7.6474 C.ar    1  LIG1        0.0034
     15 C           4.3444    4.3195    8.2714 C.ar    1  LIG1       -0.0523
     16 H           4.5704    3.5841    7.7494 H       1  LIG1        0.0624
     17 C           4.5054    4.2512    9.6255 C.ar    1  LIG1       -0.0611
     18 H           4.8545    3.4804   10.0121 H       1  LIG1        0.0618
     19 C           4.1483    5.3352   10.4340 C.ar    1  LIG1       -0.0612
     20 H           4.2453    5.2783   11.3583 H       1  LIG1        0.0618
     21 C           3.6663    6.4560    9.8786 C.ar    1  LIG1       -0.0540
     22 H           3.4264    7.1661   10.4301 H       1  LIG1        0.0624
     23 C           4.3312    4.4836    4.1387 C.2     1  LIG1        0.3096
     24 C           4.7306    2.9680    2.2685 C.ar    1  LIG1        0.1658
     25 C           5.1634    1.7878    0.4808 C.ar    1  LIG1        0.0397
     26 H           5.2655    1.0046   -0.0118 H       1  LIG1        0.0838
     27 C           5.3640    2.9816   -0.0706 C.ar    1  LIG1        0.0080
     28 C           5.7648    3.3337   -1.4777 C.3     1  LIG1       -0.0319
     29 H           5.8160    2.5324   -2.0036 H       1  LIG1        0.0283
     30 H           6.6212    3.7652   -1.4659 H       1  LIG1        0.0283
     31 H           5.1115    3.9257   -1.8564 H       1  LIG1        0.0283
     32 N           6.9432    9.3395    5.0109 N.4     2  LIG2        0.2433
     33 C           7.8458   10.4812    4.5841 C.3     2  LIG2       -0.0301
     34 H           8.3816   10.7468    5.3475 H       2  LIG2        0.0815
     35 H           8.4540   10.1505    3.9051 H       2  LIG2        0.0815
     36 C           7.1539   11.7096    4.0425 C.3     2  LIG2       -0.0127
     37 H           6.5384   12.0610    4.7038 H       2  LIG2        0.0317
     38 H           6.6464   11.4798    3.2477 H       2  LIG2        0.0317
     39 C           8.2055   12.7638    3.6991 C.3     2  LIG2       -0.0511
     40 H           8.6502   13.0428    4.5154 H       2  LIG2        0.0264
     41 H           8.8739   12.3657    3.1202 H       2  LIG2        0.0264
     42 C           7.6351   13.9547    3.0299 C.3     2  LIG2       -0.0651
     43 H           7.2565   13.6966    2.1861 H       2  LIG2        0.0230
     44 H           8.3282   14.6029    2.8847 H       2  LIG2        0.0230
     45 H           6.9509   14.3364    3.5853 H       2  LIG2        0.0230
     46 C           6.0311    9.7572    6.1560 C.3     2  LIG2       -0.0301
     47 H           5.4229   10.4366    5.8283 H       2  LIG2        0.0815
     48 H           5.4957    8.9891    6.4131 H       2  LIG2        0.0815
     49 C           6.7124   10.2914    7.3942 C.3     2  LIG2       -0.0127
     50 H           7.1734   11.1221    7.1980 H       2  LIG2        0.0317
     51 H           7.3555    9.6504    7.7337 H       2  LIG2        0.0317
     52 C           5.5714   10.5273    8.4304 C.3     2  LIG2       -0.0511
     53 H           4.9246   11.1380    8.0418 H       2  LIG2        0.0264
     54 H           5.1187    9.6835    8.5874 H       2  LIG2        0.0264
     55 C           6.0159   11.0824    9.7511 C.3     2  LIG2       -0.0651
     56 H           6.7230   10.5376   10.1043 H       2  LIG2        0.0230
     57 H           5.2757   11.0828   10.3633 H       2  LIG2        0.0230
     58 H           6.3325   11.9796    9.6314 H       2  LIG2        0.0230
     59 C           7.8606    8.2077    5.4319 C.3     2  LIG2       -0.0301
     60 H           8.4399    8.5349    6.1383 H       2  LIG2        0.0815
     61 H           8.4255    7.9787    4.6783 H       2  LIG2        0.0815
     62 C           7.1892    6.9348    5.9244 C.3     2  LIG2       -0.0127
     63 H           6.6635    7.1283    6.7153 H       2  LIG2        0.0317
     64 H           6.5910    6.5966    5.2396 H       2  LIG2        0.0317
     65 C           8.2298    5.8859    6.2502 C.3     2  LIG2       -0.0511
     66 H           8.8387    6.2417    6.9174 H       2  LIG2        0.0264
     67 H           8.7446    5.6924    5.4515 H       2  LIG2        0.0264
     68 C           7.6244    4.5999    6.7722 C.3     2  LIG2       -0.0651
     69 H           7.1873    4.7679    7.6101 H       2  LIG2        0.0230
     70 H           8.3184    3.9481    6.8978 H       2  LIG2        0.0230
     71 H           6.9844    4.2673    6.1383 H       2  LIG2        0.0230
     72 C           6.0285    8.9064    3.8737 C.3     2  LIG2       -0.0301
     73 H           5.4687    8.1814    4.1916 H       2  LIG2        0.0815
     74 H           5.4444    9.6482    3.6540 H       2  LIG2        0.0815
     75 C           6.7206    8.4532    2.6100 C.3     2  LIG2       -0.0127
     76 H           7.3590    9.1281    2.3313 H       2  LIG2        0.0317
     77 H           7.2075    7.6328    2.7827 H       2  LIG2        0.0317
     78 C           5.7213    8.2191    1.5051 C.3     2  LIG2       -0.0511
     79 H           5.1210    7.5077    1.7740 H       2  LIG2        0.0264
     80 H           5.1911    9.0239    1.3894 H       2  LIG2        0.0264
     81 C           6.3328    7.8581    0.1923 C.3     2  LIG2       -0.0651
     82 H           6.8898    8.5793   -0.1119 H       2  LIG2        0.0230
     83 H           5.6388    7.6974   -0.4513 H       2  LIG2        0.0230
     84 H           6.8637    7.0644    0.2944 H       2  LIG2        0.0230
     85 CL          3.4513    1.3213    5.9541 Cl      3  LIG3        0.0000
     86 O           3.2474   -0.3756    3.2144 O.3     4  HOH4       -0.4105
     87 H           3.7573    3.6947    5.7851 H       1  LIG1        0.1564
     88 H           4.1654    2.5650    4.0405 H       1  LIG1        0.1583
     89 H           3.3210   -0.0113    4.0582 H       0  HOH0        0.2052
     90 H           3.7167    0.2475    2.7081 H       0  HOH0        0.2052
@<TRIPOS>BOND
     1    29    28    1
     2    31    28    1
     3    28    30    1
     4    28    27    1
     5    83    81    1
     6    82    81    1
     7    27    25   ar
     8    27     1   ar
     9    26    25    1
    10    81    84    1
    11    81    78    1
    12    25     3   ar
    13     1    24   ar
    14    80    78    1
    15    78    79    1
    16    78    75    1
    17     3    24   ar
    18    43    42    1
    19    24     4    1
    20    76    75    1
    21    75    77    1
    22    75    72    1
    23    90    86    1
    24    44    42    1
    25    42    45    1
    26    42    39    1
    27    41    39    1
    28    86    89    1
    29    38    36    1
    30     2    23    2
    31     4    88    1
    32     4    23   am
    33    74    72    1
    34    39    36    1
    35    39    40    1
    36    72    73    1
    37    72    32    1
    38    35    33    1
    39    36    33    1
    40    36    37    1
    41    23     5   am
    42    33    32    1
    43    33    34    1
    44    61    59    1
    45     8     7    1
    46    32    59    1
    47    32    46    1
    48    64    62    1
    49    59    62    1
    50    59    60    1
    51     5    87    1
    52     5     6    1
    53    67    65    1
    54     7     6   ar
    55     7     9   ar
    56    47    46    1
    57    62    65    1
    58    62    63    1
    59    71    68    1
    60    10     9    1
    61    46    48    1
    62    46    49    1
    63     6    14   ar
    64    65    68    1
    65    65    66    1
    66     9    11   ar
    67    68    70    1
    68    68    69    1
    69    50    49    1
    70    49    51    1
    71    49    52    1
    72    14    15   ar
    73    14    13   ar
    74    16    15    1
    75    11    12    1
    76    11    13   ar
    77    53    52    1
    78    15    17   ar
    79    52    54    1
    80    52    55    1
    81    13    21   ar
    82    17    18    1
    83    17    19   ar
    84    58    55    1
    85    55    56    1
    86    55    57    1
    87    21    22    1
    88    21    19   ar
    89    19    20    1
