@<TRIPOS>MOLECULE
Piroxicam monohydrate
 78 80 0 0 0
SMALL
GASTEIGER

@<TRIPOS>ATOM
      1 S           0.3697    1.5896    5.7763 S.O2    1  LIG1        0.0627
      2 O           0.5742    0.4222    4.9627 O.2     1  LIG1       -0.1528
      3 O           1.5157    2.1896    6.3993 O.2     1  LIG1       -0.1528
      4 O          -2.1871    4.5821    7.4728 O.2     1  LIG1       -0.2892
      5 O          -0.0315    5.3579    3.9835 O.2     1  LIG1       -0.2449
      6 N          -0.3764    2.7310    4.8759 N.3     1  LIG1       -0.1523
      7 N          -1.1687    6.1933    5.8052 N.am    1  LIG1       -0.1736
      8 N          -0.3901    7.9642    4.4674 N.pl3   1  LIG1       -0.2120
      9 C          -0.8476    3.8564    5.6470 C.3     1  LIG1        0.2406
     10 C          -1.6028    3.6570    6.8272 C.2     1  LIG1        0.2010
     11 C          -1.6881    2.2804    7.4076 C.ar    1  LIG1        0.0463
     12 C          -2.6080    2.0353    8.4371 C.ar    1  LIG1       -0.0493
     13 C          -2.6803    0.7822    9.0390 C.ar    1  LIG1       -0.0610
     14 C          -1.8336   -0.2490    8.6207 C.ar    1  LIG1       -0.0599
     15 C          -0.9097   -0.0259    7.6022 C.ar    1  LIG1       -0.0347
     16 C          -0.8376    1.2353    7.0143 C.ar    1  LIG1        0.1160
     17 C          -0.6261    5.1445    5.0678 C.2     1  LIG1        0.3339
     18 C          -1.1783    7.5031    5.4581 C.2     1  LIG1        0.2633
     19 C          -2.0078    8.4188    6.1334 C.2     1  LIG1        0.0090
     20 C          -2.0222    9.7351    5.7320 C.3     1  LIG1        0.0162
     21 C          -1.2066   10.1742    4.6744 C.2     1  LIG1       -0.0390
     22 C          -0.3831    9.2614    4.0702 C.2     1  LIG1        0.0783
     23 C          -1.3229    2.2456    3.8484 C.3     1  LIG1        0.0107
     24 H          -3.2806    2.8247    8.7490 H       1  LIG1        0.0625
     25 H          -3.3861    0.6728    9.8532 H       1  LIG1        0.0618
     26 H          -1.8517   -1.2257    9.0886 H       1  LIG1        0.0618
     27 H          -0.2225   -0.7958    7.2735 H       1  LIG1        0.0637
     28 H          -2.6066    8.0715    6.9665 H       1  LIG1        0.0655
     29 H          -2.6567   10.4165    6.2852 H       1  LIG1        0.0398
     30 H          -1.2065   11.2069    4.3486 H       1  LIG1        0.0612
     31 H           0.3073    9.4743    3.2634 H       1  LIG1        0.1056
     32 H          -2.2507    1.9482    4.2633 H       1  LIG1        0.0408
     33 H          -0.8383    1.4746    3.3079 H       1  LIG1        0.0408
     34 H          -1.4911    3.0355    3.1634 H       1  LIG1        0.0408
     35 H          -1.7442    5.8549    6.5618 H       1  LIG1        0.3011
     36 H           0.2364    7.3113    4.0208 H       1  LIG1        0.2976
     37 S           2.9613   11.4589    2.2581 S.O2    2  LIG2        0.0627
     38 O           2.0230   12.5187    2.5211 O.2     2  LIG2       -0.1528
     39 O           3.8929   11.1003    3.2923 O.2     2  LIG2       -0.1528
     40 O           4.7796    8.3945   -0.0271 O.2     2  LIG2       -0.2892
     41 O           1.7328    7.5476    2.7129 O.2     2  LIG2       -0.2449
     42 N           2.1272   10.1238    1.8245 N.3     2  LIG2       -0.1523
     43 N           3.4917    6.7287    1.4824 N.am    2  LIG2       -0.1736
     44 N           2.6319    5.0582    2.9009 N.pl3   2  LIG2       -0.2120
     45 C           2.9816    9.0531    1.3699 C.3     2  LIG2        0.2406
     46 C           4.0169    9.3003    0.4531 C.2     2  LIG2        0.2010
     47 C           4.2627   10.7132    0.0169 C.ar    2  LIG2        0.0463
     48 C           4.9580   10.9660   -1.1698 C.ar    2  LIG2       -0.0493
     49 C           5.2087   12.2746   -1.5811 C.ar    2  LIG2       -0.0610
     50 C           4.7829   13.3542   -0.8027 C.ar    2  LIG2       -0.0599
     51 C           4.0919   13.1281    0.3867 C.ar    2  LIG2       -0.0347
     52 C           3.8416   11.8162    0.7792 C.ar    2  LIG2        0.1160
     53 C           2.6646    7.7587    1.9154 C.2     2  LIG2        0.3339
     54 C           3.5307    5.4581    1.9822 C.2     2  LIG2        0.2633
     55 C           4.5293    4.5576    1.5761 C.2     2  LIG2        0.0090
     56 C           4.5688    3.3034    2.1461 C.3     2  LIG2        0.0162
     57 C           3.6071    2.9173    3.0948 C.2     2  LIG2       -0.0390
     58 C           2.6482    3.8243    3.4626 C.2     2  LIG2        0.0783
     59 C           0.9222   10.3632    0.9982 C.3     2  LIG2        0.0107
     60 H           5.2871   10.1269   -1.7702 H       2  LIG2        0.0625
     61 H           5.7417   12.4664   -2.5042 H       2  LIG2        0.0618
     62 H           5.0055   14.3710   -1.1015 H       2  LIG2        0.0618
     63 H           3.7515   13.9359    1.0226 H       2  LIG2        0.0637
     64 H           5.2760    4.8730    0.8579 H       2  LIG2        0.0655
     65 H           5.3789    2.6497    1.8471 H       2  LIG2        0.0398
     66 H           3.6370    1.9411    3.5628 H       2  LIG2        0.0612
     67 H           1.8477    3.6392    4.1683 H       2  LIG2        0.1056
     68 H           1.1632   10.7070    0.0260 H       2  LIG2        0.0408
     69 H           0.2725   11.0513    1.4736 H       2  LIG2        0.0408
     70 H           0.4320    9.4307    0.8904 H       2  LIG2        0.0408
     71 H           4.1929    7.0536    0.8337 H       2  LIG2        0.3011
     72 H           1.9120    5.7113    3.1716 H       2  LIG2        0.2976
     73 O           6.9010    7.1722   -1.2869 O.3     3  HOH3       -0.4105
     74 H           6.1372    7.6850   -0.9352 H       0  HOH0        0.2052
     75 H           6.6704    6.8815   -2.1993 H       0  HOH0        0.2052
     76 O           9.2629    7.5757    0.2976 O.3     4  HOH4       -0.4105
     77 H           8.5392    7.4559   -0.3597 H       0  HOH0        0.2052
     78 H           9.5171    6.6904    0.6463 H       0  HOH0        0.2052
@<TRIPOS>BOND
     1    61    49    1
     2    75    73    1
     3    60    48    1
     4    49    48   ar
     5    49    50   ar
     6    73    74    1
     7    48    47   ar
     8    62    50    1
     9    50    51   ar
    10    77    76    1
    11    40    46    2
    12    47    46    1
    13    47    52   ar
    14    68    59    1
    15    76    78    1
    16    51    52   ar
    17    51    63    1
    18    46    45    1
    19    52    37    1
    20    71    43    1
    21    64    55    1
    22    70    59    1
    23    59    69    1
    24    59    42    1
    25    45    42    1
    26    45    53    1
    27    43    53   am
    28    43    54    1
    29    55    54    2
    30    55    56    1
    31    42    37    1
    32    65    56    1
    33    53    41    2
    34    54    44    1
    35    56    57    1
    36    37    38    2
    37    37    39    2
    38    44    72    1
    39    44    58    1
    40    57    58    2
    41    57    66    1
    42    34    23    1
    43    31    22    1
    44    33    23    1
    45    58    67    1
    46    23    32    1
    47    23     6    1
    48     5    17    2
    49    36     8    1
    50    22     8    1
    51    22    21    2
    52    30    21    1
    53     8    18    1
    54    21    20    1
    55     6     9    1
    56     6     1    1
    57     2     1    2
    58    17     9    1
    59    17     7   am
    60    18     7    1
    61    18    19    2
    62     9    10    1
    63    20    19    1
    64    20    29    1
    65     1     3    2
    66     1    16    1
    67     7    35    1
    68    19    28    1
    69    10    11    1
    70    10     4    2
    71    16    11   ar
    72    16    15   ar
    73    27    15    1
    74    11    12   ar
    75    15    14   ar
    76    12    24    1
    77    12    13   ar
    78    14    13   ar
    79    14    26    1
    80    13    25    1
