@<TRIPOS>MOLECULE
?
 34 35 0 0 0
SMALL
GASTEIGER

@<TRIPOS>ATOM
      1 C           2.5401    7.0886   13.6462 C.3     1  LIG1        0.0034
      2 H           2.7819    6.6478   14.4641 H       1  LIG1        0.0429
      3 H           3.2742    7.0461   13.0293 H       1  LIG1        0.0429
      4 H           1.7742    6.6534   13.2633 H       1  LIG1        0.0429
      5 C           1.4663    8.8283   15.0149 C.ar    1  LIG1        0.0573
      6 C           0.7331    7.9087   15.7748 C.ar    1  LIG1       -0.0385
      7 H           0.7315    7.0089   15.5399 H       1  LIG1        0.0637
      8 C           0.0176    8.3331   16.8632 C.ar    1  LIG1       -0.0599
      9 H          -0.4851    7.7177   17.3458 H       1  LIG1        0.0618
     10 C           0.0266    9.6613   17.2625 C.ar    1  LIG1       -0.0596
     11 H          -0.4653    9.9318   18.0040 H       1  LIG1        0.0618
     12 C           0.7702   10.5740   16.5510 C.ar    1  LIG1       -0.0345
     13 H           0.7955   11.4629   16.8245 H       1  LIG1        0.0639
     14 C           1.4845   10.1796   15.4264 C.ar    1  LIG1        0.0854
     15 C           2.8069   10.7765   13.6379 C.2     1  LIG1        0.1142
     16 C           2.5306    9.4744   12.9537 C.3     1  LIG1        0.1699
     17 H           3.3251    9.1994   12.4495 H       1  LIG1        0.0879
     18 C           1.4264    8.9240   10.8988 C.3     1  LIG1        0.0737
     19 H           1.0880    8.0485   11.1436 H       1  LIG1        0.0583
     20 H           2.3193    8.8169   10.5359 H       1  LIG1        0.0583
     21 C           0.5312    9.5536    9.8817 C.3     1  LIG1        0.0711
     22 H          -0.2948    9.8485   10.2966 H       1  LIG1        0.0583
     23 H           0.9666   10.3222    9.4801 H       1  LIG1        0.0583
     24 C          -0.5404    9.0317    7.8398 C.3     1  LIG1        0.0449
     25 H          -0.0787    9.7304    7.3497 H       1  LIG1        0.0557
     26 H          -1.3695    9.3974    8.1862 H       1  LIG1        0.0557
     27 C          -0.8286    7.8910    6.9406 C.3     1  LIG1       -0.0416
     28 H          -0.0040    7.4803    6.6702 H       1  LIG1        0.0252
     29 H          -1.2986    8.2060    6.1649 H       1  LIG1        0.0252
     30 H          -1.3696    7.2474    7.4029 H       1  LIG1        0.0252
     31 N           2.2195    8.4776   13.9216 N.pl3   1  LIG1       -0.3011
     32 N           2.2812   11.1189   14.7685 N.2     1  LIG1       -0.2441
     33 O           1.4624    9.7654   12.0347 O.3     1  LIG1       -0.3506
     34 O           0.2669    8.5755    8.9048 O.3     1  LIG1       -0.3778
@<TRIPOS>BOND
     1    29    27    1
     2    28    27    1
     3    27    30    1
     4    27    24    1
     5    25    24    1
     6    24    26    1
     7    24    34    1
     8    34    21    1
     9    23    21    1
    10    21    22    1
    11    21    18    1
    12    20    18    1
    13    18    19    1
    14    18    33    1
    15    33    16    1
    16    17    16    1
    17    16    15    1
    18    16    31    1
    19     3     1    1
    20     4     1    1
    21    15    32    2
    22     1    31    1
    23     1     2    1
    24    31     5    1
    25    32    14    1
    26     5    14   ar
    27     5     6   ar
    28    14    12   ar
    29     7     6    1
    30     6     8   ar
    31    12    13    1
    32    12    10   ar
    33     8    10   ar
    34     8     9    1
    35    10    11    1
