@<TRIPOS>MOLECULE
C30 H41 Cl2 N5 O7
 85 86 0 0 0
SMALL
GASTEIGER

@<TRIPOS>ATOM
      1 CL          2.6976   12.5120    1.6192 Cl      1  LIG1       -0.0797
      2 C           2.1963   11.4567    2.9015 C.ar    1  LIG1        0.0840
      3 C           1.1502   10.5662    2.6724 C.ar    1  LIG1        0.1402
      4 O           0.5970   10.5812    1.4324 O.3     1  LIG1       -0.4936
      5 C          -0.3975    9.6030    1.1433 C.3     1  LIG1        0.0789
      6 C           0.7358    9.7302    3.7062 C.ar    1  LIG1        0.0041
      7 C           1.3767    9.7619    4.9465 C.ar    1  LIG1        0.0535
      8 N           0.9905    8.8028    5.9200 N.pl3   1  LIG1       -0.3117
      9 C           0.6877    9.0449    7.2227 C.ar    1  LIG1        0.0598
     10 C           0.2316   10.2815    7.7011 C.ar    1  LIG1        0.0915
     11 C          -0.0555   11.4055    6.8562 C.1     1  LIG1        0.1026
     12 N          -0.3193   12.3461    6.2494 N.1     1  LIG1       -0.1908
     13 C           0.0120   10.4669    9.0818 C.ar    1  LIG1        0.0474
     14 N           0.2187    9.5550   10.0087 N.ar    1  LIG1       -0.2535
     15 C           0.6444    8.3242    9.5648 C.ar    1  LIG1        0.0765
     16 C           0.8357    8.0017    8.1997 C.ar    1  LIG1        0.0265
     17 C           1.2337    6.6871    7.8564 C.ar    1  LIG1       -0.0053
     18 C           1.4625    5.7462    8.8220 C.ar    1  LIG1        0.1622
     19 O           1.8414    4.4600    8.5971 O.3     1  LIG1       -0.4914
     20 C           1.7785    4.0061    7.2427 C.3     1  LIG1        0.0790
     21 C           1.3407    6.0977   10.2011 C.ar    1  LIG1        0.1639
     22 C           0.9320    7.3505   10.5510 C.ar    1  LIG1        0.0097
     23 O           1.6522    5.0978   11.0703 O.3     1  LIG1       -0.4882
     24 C           1.4849    5.3696   12.4702 C.3     1  LIG1        0.0909
     25 C           1.8392    4.0880   13.1903 C.3     1  LIG1       -0.0058
     26 C           1.6204    4.2166   14.6901 C.3     1  LIG1        0.0021
     27 N           2.0649    3.0197   15.4178 N.3     1  LIG1       -0.2998
     28 C           1.1964    1.8725   15.1538 C.3     1  LIG1        0.0117
     29 C           1.6780    0.6542   15.9118 C.3     1  LIG1        0.0114
     30 N           1.7001    0.9124   17.3576 N.3     1  LIG1       -0.3029
     31 C           2.1905   -0.2761   18.0697 C.3     1  LIG1       -0.0127
     32 C           2.5677    2.0563   17.6137 C.3     1  LIG1        0.0114
     33 C           2.0727    3.2825   16.8655 C.3     1  LIG1        0.0117
     34 C           2.4346   10.6409    5.1359 C.ar    1  LIG1        0.0637
     35 C           2.8375   11.5034    4.1239 C.ar    1  LIG1       -0.0197
     36 CL          3.3241   10.6664    6.6280 Cl      1  LIG1       -0.0816
     37 O           5.0320    2.9903   15.0725 O.3     2  HOH2       -0.4105
     38 O           1.3930    6.3418    4.5824 O.3     3  HOH3       -0.4105
     39 O          -0.7141    4.8047    3.6609 O.3     4  LIG4       -0.3752
     40 C          -0.9543    5.0908    2.2843 C.3     4  LIG4        0.0711
     41 C          -0.3168    4.0444    1.4193 C.3     4  LIG4        0.0711
     42 O          -0.8046    2.7505    1.7461 O.3     4  LIG4       -0.3752
     43 C          -0.5539    2.4727    3.1265 C.3     4  LIG4        0.0711
     44 C          -1.2063    3.4985    3.9964 C.3     4  LIG4        0.0711
     45 H          -0.6446    9.7210    0.2269 H       1  LIG1        0.0660
     46 H          -1.1706    9.7306    1.7171 H       1  LIG1        0.0660
     47 H          -0.0416    8.7047    1.2577 H       1  LIG1        0.0660
     48 H           0.0048    9.1336    3.5868 H       1  LIG1        0.0674
     49 H          -0.3080   11.3314    9.3936 H       1  LIG1        0.0843
     50 H           1.3610    6.4455    6.9426 H       1  LIG1        0.0662
     51 H           1.9941    3.0571    7.2353 H       1  LIG1        0.0660
     52 H           2.4412    4.4822    6.7157 H       1  LIG1        0.0660
     53 H           0.8676    4.1203    6.9034 H       1  LIG1        0.0660
     54 H           0.8184    7.5791   11.4468 H       1  LIG1        0.0677
     55 H           2.0650    6.0987   12.7339 H       1  LIG1        0.0697
     56 H           0.5543    5.6277   12.6485 H       1  LIG1        0.0697
     57 H           2.7780    3.8882   13.0154 H       1  LIG1        0.0310
     58 H           1.2890    3.3633   12.8319 H       1  LIG1        0.0310
     59 H           2.1225    4.9881   15.0406 H       1  LIG1        0.0428
     60 H           0.6609    4.3620   14.8487 H       1  LIG1        0.0428
     61 H           0.2619    2.0740   15.4258 H       1  LIG1        0.0439
     62 H           1.2437    1.6657   14.1975 H       1  LIG1        0.0439
     63 H           2.5909    0.4275   15.6022 H       1  LIG1        0.0439
     64 H           1.0613   -0.0882   15.7507 H       1  LIG1        0.0439
     65 H           2.2380   -0.0448   19.0238 H       1  LIG1        0.0391
     66 H           3.0701   -0.5361   17.7451 H       1  LIG1        0.0391
     67 H           1.5442   -0.9983   17.9384 H       1  LIG1        0.0391
     68 H           2.5257    2.2527   18.5672 H       1  LIG1        0.0439
     69 H           3.4861    1.8332   17.2983 H       1  LIG1        0.0439
     70 H           2.6419    4.0587   17.0462 H       1  LIG1        0.0439
     71 H           1.1591    3.4808   17.1625 H       1  LIG1        0.0439
     72 H           3.5492   12.0966    4.2675 H       1  LIG1        0.0648
     73 H          -0.5664    5.9880    2.0994 H       4  LIG4        0.0583
     74 H          -1.9200    5.0888    2.1176 H       4  LIG4        0.0583
     75 H           0.6899    4.0540    1.5532 H       4  LIG4        0.0583
     76 H          -0.5098    4.1942    0.4706 H       4  LIG4        0.0583
     77 H           0.4502    2.5372    3.2661 H       4  LIG4        0.0583
     78 H          -0.8857    1.5662    3.3221 H       4  LIG4        0.0583
     79 H          -1.0042    3.3574    4.9454 H       4  LIG4        0.0583
     80 H          -2.2027    3.4568    3.8711 H       4  LIG4        0.0583
     81 H           0.7632    5.8291    4.3375 H       0  HOH0        0.2052
     82 H           4.1984    2.7998   15.0784 H       0  HOH0        0.2052
     83 H           0.9723    7.9785    5.6485 H       1  LIG1        0.1522
     84 H           5.2511    3.2305   15.8319 H       0  HOH0        0.2052
     85 H           2.0848    6.1363    4.1527 H       0  HOH0        0.2052
@<TRIPOS>BOND
     1    45     5    1
     2    76    41    1
     3     5    47    1
     4     5     4    1
     5     5    46    1
     6    41    75    1
     7    41    42    1
     8    41    40    1
     9     4     3    1
    10     1     2    1
    11    42    43    1
    12    73    40    1
    13    74    40    1
    14    40    39    1
    15     3     2   ar
    16     3     6   ar
    17     2    35   ar
    18    43    77    1
    19    43    78    1
    20    43    44    1
    21    48     6    1
    22    39    44    1
    23     6     7   ar
    24    80    44    1
    25    44    79    1
    26    35    72    1
    27    35    34   ar
    28    85    38    1
    29    81    38    1
    30     7    34   ar
    31     7     8    1
    32    34    36    1
    33    83     8    1
    34     8     9    1
    35    12    11    3
    36    52    20    1
    37    11    10    1
    38    53    20    1
    39    50    17    1
    40     9    10   ar
    41     9    16   ar
    42    51    20    1
    43    20    19    1
    44    10    13   ar
    45    17    16   ar
    46    17    18   ar
    47    16    15   ar
    48    19    18    1
    49    18    21   ar
    50    13    49    1
    51    13    14   ar
    52    15    14   ar
    53    15    22   ar
    54    21    22   ar
    55    21    23    1
    56    22    54    1
    57    23    24    1
    58    24    56    1
    59    24    55    1
    60    24    25    1
    61    58    25    1
    62    57    25    1
    63    25    26    1
    64    62    28    1
    65    26    60    1
    66    26    59    1
    67    26    27    1
    68    37    82    1
    69    37    84    1
    70    28    27    1
    71    28    61    1
    72    28    29    1
    73    27    33    1
    74    63    29    1
    75    64    29    1
    76    29    30    1
    77    33    70    1
    78    33    71    1
    79    33    32    1
    80    69    32    1
    81    30    32    1
    82    30    31    1
    83    32    68    1
    84    66    31    1
    85    67    31    1
    86    31    65    1
