@<TRIPOS>MOLECULE
Bicyclo[2.2.2]octane-2-endo,3-endo-dicarboxylic acid anhydride
 50 54 0 0 0
SMALL
GASTEIGER

@<TRIPOS>ATOM
      1 C           5.8690    4.0953    9.0514 C.2     1  LIG1        0.3186
      2 C           5.1642    2.9631    9.7354 C.3     1  LIG1        0.0728
      3 H           4.8944    3.2384   10.6366 H       1  LIG1        0.0424
      4 C           6.2162    1.8603    9.8277 C.3     1  LIG1        0.0728
      5 H           6.3652    1.6200   10.7656 H       1  LIG1        0.0424
      6 C           7.4529    2.4663    9.2579 C.2     1  LIG1        0.3186
      7 C           5.7451    0.6290    9.0425 C.3     1  LIG1       -0.0273
      8 H           6.4293   -0.0726    9.0764 H       1  LIG1        0.0309
      9 C           4.4611    0.1378    9.6979 C.3     1  LIG1       -0.0492
     10 H           4.6433   -0.1264   10.6135 H       1  LIG1        0.0268
     11 H           4.1283   -0.6384    9.2198 H       1  LIG1        0.0268
     12 C           3.4050    1.2417    9.6826 C.3     1  LIG1       -0.0492
     13 H           2.6054    0.9229    9.2343 H       1  LIG1        0.0268
     14 H           3.1664    1.4781   10.5932 H       1  LIG1        0.0268
     15 C           3.9434    2.4678    8.9591 C.3     1  LIG1       -0.0273
     16 H           3.2586    3.1674    8.9286 H       1  LIG1        0.0309
     17 C           4.3664    2.0847    7.5414 C.3     1  LIG1       -0.0492
     18 H           4.6880    2.8707    7.0727 H       1  LIG1        0.0268
     19 H           3.6031    1.7341    7.0568 H       1  LIG1        0.0268
     20 C           5.4749    1.0265    7.5944 C.3     1  LIG1       -0.0492
     21 H           5.2057    0.2446    7.0858 H       1  LIG1        0.0268
     22 H           6.2849    1.3811    7.1959 H       1  LIG1        0.0268
     23 C           5.4276   -0.2262    1.0251 C.2     2  LIG2        0.3186
     24 C           4.7097    0.8802    1.7375 C.3     2  LIG2        0.0728
     25 H           3.8058    0.5854    1.9761 H       2  LIG2        0.0424
     26 C           4.6271    2.0113    0.7061 C.3     2  LIG2        0.0728
     27 H           3.6890    2.2274    0.5244 H       2  LIG2        0.0424
     28 C           5.2627    1.4455   -0.5210 C.2     2  LIG2        0.3186
     29 C           5.3541    3.2558    1.2391 C.3     2  LIG2       -0.0273
     30 H           5.3199    3.9746    0.5737 H       2  LIG2        0.0309
     31 C           4.6401    3.6902    2.5134 C.3     2  LIG2       -0.0492
     32 H           3.7205    3.9224    2.3093 H       2  LIG2        0.0268
     33 H           5.0752    4.4760    2.8801 H       2  LIG2        0.0268
     34 C           4.6687    2.5560    3.5461 C.3     2  LIG2       -0.0492
     35 H           5.0897    2.8682    4.3622 H       2  LIG2        0.0268
     36 H           3.7621    2.2861    3.7595 H       2  LIG2        0.0268
     37 C           5.4425    1.3616    2.9943 C.3     2  LIG2       -0.0273
     38 H           5.4771    0.6441    3.6610 H       2  LIG2        0.0309
     39 C           6.8553    1.7981    2.6190 C.3     2  LIG2       -0.0492
     40 H           7.3497    1.0387    2.2731 H       2  LIG2        0.0268
     41 H           7.3154    2.1239    3.4089 H       2  LIG2        0.0268
     42 C           6.8065    2.9082    1.5558 C.3     2  LIG2       -0.0492
     43 H           7.2674    3.6958    1.8834 H       2  LIG2        0.0268
     44 H           7.2553    2.6090    0.7490 H       2  LIG2        0.0268
     45 O           8.5415    2.0105    9.1418 O.2     1  LIG1       -0.2500
     46 O           7.1963    3.7578    8.8267 O.3     1  LIG1       -0.3929
     47 O           5.4596    5.1522    8.7094 O.2     1  LIG1       -0.2500
     48 O           5.4121    1.9380   -1.5910 O.2     2  LIG2       -0.2500
     49 O           5.7031    0.1534   -0.2813 O.3     2  LIG2       -0.3929
     50 O           5.7618   -1.2990    1.4112 O.2     2  LIG2       -0.2500
@<TRIPOS>BOND
     1    48    28    2
     2    28    49    1
     3    28    26    1
     4    49    23    1
     5    27    26    1
     6    30    29    1
     7    26    29    1
     8    26    24    1
     9    44    42    1
    10    23    50    2
    11    23    24    1
    12    29    42    1
    13    29    31    1
    14    42    43    1
    15    42    39    1
    16    24    25    1
    17    24    37    1
    18    40    39    1
    19    32    31    1
    20    31    33    1
    21    31    34    1
    22    39    37    1
    23    39    41    1
    24    37    34    1
    25    37    38    1
    26    34    36    1
    27    34    35    1
    28    19    17    1
    29    18    17    1
    30    21    20    1
    31    22    20    1
    32    17    20    1
    33    17    15    1
    34    20     7    1
    35    47     1    2
    36    46     1    1
    37    46     6    1
    38    16    15    1
    39    15    12    1
    40    15     2    1
    41     7     8    1
    42     7     9    1
    43     7     4    1
    44     1     2    1
    45    45     6    2
    46    11     9    1
    47    13    12    1
    48     6     4    1
    49    12     9    1
    50    12    14    1
    51     9    10    1
    52     2     4    1
    53     2     3    1
    54     4     5    1
