@<TRIPOS>MOLECULE
?
 29 30 0 0 0
SMALL
GASTEIGER

@<TRIPOS>ATOM
      1 CL         -0.3595   -5.2072   11.2857 Cl      1  LIG1       -0.0813
      2 S          -2.2975   -6.1684    6.5039 S.O2    1  LIG1        0.0272
      3 CL          1.1833   -6.7533    9.4014 Cl      1  LIG1       -0.0813
      4 CL         -1.5526   -7.4748    9.9746 Cl      1  LIG1       -0.0813
      5 O          -2.0735   -7.3635    5.7274 O.2     1  LIG1       -0.1585
      6 O          -3.4289   -6.0974    7.3688 O.2     1  LIG1       -0.1585
      7 O           2.1715   -0.5022    8.2284 O.3     1  LIG1       -0.4526
      8 O           2.9916   -2.4242    7.2128 O.3     1  LIG1       -0.4526
      9 N          -0.9688   -5.9883    7.4045 N.3     1  LIG1       -0.1833
     10 C          -0.9304   -5.1845    8.6188 C.3     1  LIG1        0.1000
     11 H          -1.8539   -4.9366    8.8344 H       1  LIG1        0.0569
     12 C           1.0902   -3.8828    7.7928 C.ar    1  LIG1       -0.0113
     13 H           1.4321   -4.6408    7.3759 H       1  LIG1        0.0659
     14 C          -0.1395   -3.9036    8.4835 C.ar    1  LIG1       -0.0212
     15 C          -0.4207   -6.1094    9.7583 C.3     1  LIG1        0.2112
     16 C           1.7549   -2.6833    7.7686 C.ar    1  LIG1        0.1665
     17 C           1.2705   -1.5529    8.3834 C.ar    1  LIG1        0.1662
     18 C          -2.3635   -4.8352    5.3686 C.3     1  LIG1        0.0705
     19 H          -1.6041   -4.8765    4.7835 H       1  LIG1        0.0479
     20 H          -2.3525   -4.0053    5.8504 H       1  LIG1        0.0479
     21 H          -3.1702   -4.8952    4.8517 H       1  LIG1        0.0479
     22 C          -0.6245   -2.7538    9.0775 C.ar    1  LIG1       -0.0532
     23 H          -1.4415   -2.7870    9.5196 H       1  LIG1        0.0622
     24 C           3.2500   -1.0556    7.5112 C.3     1  LIG1        0.2332
     25 H           4.0614   -0.9838    8.0370 H       1  LIG1        0.1166
     26 H           3.3800   -0.5614    6.6863 H       1  LIG1        0.1166
     27 C           0.0729   -1.5395    9.0346 C.ar    1  LIG1       -0.0158
     28 H          -0.2622   -0.7667    9.4283 H       1  LIG1        0.0655
     29 H          -0.3021   -6.0336    7.0064 H       1  LIG1        0.1484
@<TRIPOS>BOND
     1    19    18    1
     2    21    18    1
     3    18    20    1
     4    18     2    1
     5     5     2    2
     6     2     6    2
     7     2     9    1
     8    26    24    1
     9    29     9    1
    10     8    24    1
    11     8    16    1
    12    13    12    1
    13     9    10    1
    14    24    25    1
    15    24     7    1
    16    16    12   ar
    17    16    17   ar
    18    12    14   ar
    19     7    17    1
    20    17    27   ar
    21    14    10    1
    22    14    22   ar
    23    10    11    1
    24    10    15    1
    25    27    22   ar
    26    27    28    1
    27    22    23    1
    28     3    15    1
    29    15     4    1
    30    15     1    1
