@<TRIPOS>MOLECULE
(3-iodo-4-(dimethylamino)phenyl)(4-(dimethylamino)phenyl)methanone
 40 41 0 0 0
SMALL
GASTEIGER

@<TRIPOS>ATOM
      1 N           5.8110    7.3086    5.2683 N.pl3   1  LIG1       -0.3352
      2 C           4.3771    7.1021    5.4318 C.3     1  LIG1        0.0004
      3 H           4.1916    6.8040    6.3464 H       1  LIG1        0.0428
      4 H           4.0714    6.4200    4.7977 H       1  LIG1        0.0428
      5 H           3.9040    7.9429    5.2597 H       1  LIG1        0.0428
      6 C           6.5336    6.0657    5.5674 C.3     1  LIG1        0.0004
      7 H           7.4976    6.2367    5.5543 H       1  LIG1        0.0428
      8 H           6.3127    5.3887    4.8940 H       1  LIG1        0.0428
      9 H           6.2713    5.7409    6.4549 H       1  LIG1        0.0428
     10 I           8.5906    8.2481    3.7886 I       1  LIG1       -0.0419
     11 C           5.4410   14.6709    7.5686 C.ar    1  LIG1       -0.0400
     12 H           4.6317   14.8533    7.1068 H       1  LIG1        0.0636
     13 C           7.2707   13.1601    8.0243 C.ar    1  LIG1        0.0224
     14 C           7.1501   15.3077    9.1443 C.ar    1  LIG1       -0.0400
     15 H           7.5053   15.9140    9.7834 H       1  LIG1        0.0636
     16 C           7.7809   14.1101    8.9195 C.ar    1  LIG1       -0.0492
     17 H           8.5869   13.9193    9.3841 H       1  LIG1        0.0625
     18 C           8.0716   11.9708    7.7053 C.2     1  LIG1        0.1932
     19 O           9.2816   11.9405    7.9182 O.2     1  LIG1       -0.2867
     20 C           7.5618    9.0047    5.4554 C.ar    1  LIG1        0.0350
     21 C           6.0620   13.4621    7.3788 C.ar    1  LIG1       -0.0492
     22 H           5.6674   12.8192    6.8010 H       1  LIG1        0.0625
     23 C           5.9746   15.6484    8.4321 C.ar    1  LIG1        0.0292
     24 C           6.3378    8.4633    5.8801 C.ar    1  LIG1        0.0425
     25 C           7.4193   10.7884    7.0716 C.ar    1  LIG1        0.0233
     26 C           8.1066   10.1188    6.0670 C.ar    1  LIG1       -0.0360
     27 H           8.9624   10.4305    5.7965 H       1  LIG1        0.0635
     28 C           5.6590    9.1509    6.8899 C.ar    1  LIG1       -0.0390
     29 H           4.8195    8.8214    7.1900 H       1  LIG1        0.0637
     30 C           6.1775   10.3026    7.4649 C.ar    1  LIG1       -0.0491
     31 H           5.6805   10.7619    8.1318 H       1  LIG1        0.0625
     32 N           5.4176   16.8785    8.5582 N.pl3   1  LIG1       -0.3360
     33 C           4.2531   17.2461    7.7802 C.3     1  LIG1        0.0004
     34 H           4.4385   17.1028    6.8290 H       1  LIG1        0.0428
     35 H           4.0444   18.1918    7.9335 H       1  LIG1        0.0428
     36 H           3.4908   16.6946    8.0532 H       1  LIG1        0.0428
     37 C           5.9517   17.8406    9.4907 C.3     1  LIG1        0.0004
     38 H           5.8890   17.4836   10.4016 H       1  LIG1        0.0428
     39 H           5.4396   18.6741    9.4308 H       1  LIG1        0.0428
     40 H           6.8911   18.0192    9.2737 H       1  LIG1        0.0428
@<TRIPOS>BOND
     1    10    20    1
     2     4     2    1
     3     8     6    1
     4     5     2    1
     5     1     2    1
     6     1     6    1
     7     1    24    1
     8     2     3    1
     9    20    24   ar
    10    20    26   ar
    11     7     6    1
    12     6     9    1
    13    27    26    1
    14    24    28   ar
    15    26    25   ar
    16    22    21    1
    17    34    33    1
    18    28    29    1
    19    28    30   ar
    20    25    30   ar
    21    25    18    1
    22    12    11    1
    23    21    11   ar
    24    21    13   ar
    25    30    31    1
    26    11    23   ar
    27    18    19    2
    28    18    13    1
    29    33    35    1
    30    33    36    1
    31    33    32    1
    32    13    16   ar
    33    23    32    1
    34    23    14   ar
    35    32    37    1
    36    16    14   ar
    37    16    17    1
    38    14    15    1
    39    40    37    1
    40    39    37    1
    41    37    38    1
