@<TRIPOS>MOLECULE
7227989.cif
 63 62 0 0 0
SMALL
GASTEIGER

@<TRIPOS>ATOM
      1 I           2.3810    2.1810    1.3285 I       1  LIG1        0.0000
      2 S           1.9935    3.9822   -2.6290 S.3     2  LIG2       -0.1110
      3 N           1.1955    1.3350   -2.4920 N.pl3   2  LIG2       -0.3017
      4 N          -0.0587    2.6749   -1.3364 N.pl3   2  LIG2       -0.3049
      5 C           0.9926    2.6293   -2.1586 C.3     2  LIG2        0.1987
      6 C           0.2594    0.5918   -1.8837 C.2     2  LIG2        0.0085
      7 H           0.1662   -0.3415   -1.9524 H       2  LIG2        0.0793
      8 C          -0.5086    1.3980   -1.1735 C.2     2  LIG2        0.0082
      9 H          -1.2413    1.1360   -0.6466 H       2  LIG2        0.0793
     10 C          -0.5372    3.8787   -0.6415 C.3     2  LIG2        0.0031
     11 H          -0.1652    3.9039    0.2545 H       2  LIG2        0.0428
     12 H          -1.5051    3.8594   -0.5880 H       2  LIG2        0.0428
     13 H          -0.2555    4.6685   -1.1302 H       2  LIG2        0.0428
     14 C           1.1770    4.4858   -4.1924 C.3     2  LIG2        0.0029
     15 H           1.6815    5.2368   -4.5691 H       2  LIG2        0.0379
     16 H           1.2495    3.7414   -4.8262 H       2  LIG2        0.0379
     17 C          -0.2002    4.8709   -4.1186 C.3     2  LIG2        0.0261
     18 H          -0.2963    5.5426   -3.4109 H       2  LIG2        0.0333
     19 H          -0.7269    4.0884   -3.8564 H       2  LIG2        0.0333
     20 C          -0.7847    5.4311   -5.3862 C.3     2  LIG2        0.3174
     21 C          -1.1783    4.4597   -6.5368 C.3     2  LIG2        0.3778
     22 C          -1.9653    5.0496   -7.7281 C.3     2  LIG2        0.3839
     23 C          -2.3322    4.0540   -8.8633 C.3     2  LIG2        0.3868
     24 C          -3.1377    4.6246  -10.0063 C.3     2  LIG2        0.4087
     25 C          -3.4923    3.6682  -11.1492 C.3     2  LIG2        0.4603
     26 C           2.2920    0.8116   -3.3244 C.3     2  LIG2        0.0202
     27 H           2.9585    0.3857   -2.7466 H       2  LIG2        0.0466
     28 H           2.7286    1.5581   -3.7851 H       2  LIG2        0.0466
     29 C           1.8065   -0.2076   -4.3655 C.3     2  LIG2        0.0328
     30 H           2.5830   -0.6683   -4.7473 H       2  LIG2        0.0340
     31 H           1.2505   -0.8797   -3.9200 H       2  LIG2        0.0340
     32 C           1.0143    0.4200   -5.4779 C.3     2  LIG2        0.3181
     33 C           0.5862   -0.5818   -6.5699 C.3     2  LIG2        0.3779
     34 C          -0.1740   -0.0038   -7.7866 C.3     2  LIG2        0.3839
     35 C          -0.5588   -1.0126   -8.8888 C.3     2  LIG2        0.3868
     36 C          -1.3422   -0.4459  -10.0572 C.3     2  LIG2        0.4087
     37 C          -1.7275   -1.4074  -11.1925 C.3     2  LIG2        0.4603
     38 F          -1.9114    6.1036   -5.0044 F       2  LIG2       -0.1989
     39 F           0.0582    6.3548   -5.9424 F       2  LIG2       -0.1989
     40 F          -1.9511    3.5048   -5.9610 F       2  LIG2       -0.1923
     41 F          -0.0781    3.8568   -6.9797 F       2  LIG2       -0.1923
     42 F          -3.0935    5.5540   -7.2628 F       2  LIG2       -0.1920
     43 F          -1.2362    6.0183   -8.2573 F       2  LIG2       -0.1920
     44 F          -3.0405    3.0532   -8.3313 F       2  LIG2       -0.1919
     45 F          -1.2122    3.5216   -9.3495 F       2  LIG2       -0.1919
     46 F          -4.3042    5.0978   -9.5354 F       2  LIG2       -0.1889
     47 F          -2.5044    5.6395  -10.5332 F       2  LIG2       -0.1889
     48 F          -4.2260    2.6698  -10.7063 F       2  LIG2       -0.1648
     49 F          -2.4632    3.1804  -11.7092 F       2  LIG2       -0.1648
     50 F          -4.1855    4.2526  -12.0681 F       2  LIG2       -0.1648
     51 F           1.7322    1.4152   -6.0689 F       2  LIG2       -0.1988
     52 F          -0.1048    1.0127   -5.0003 F       2  LIG2       -0.1988
     53 F           1.7056   -1.1887   -7.0232 F       2  LIG2       -0.1923
     54 F          -0.1681   -1.5167   -5.9915 F       2  LIG2       -0.1923
     55 F           0.5922    0.9300   -8.3548 F       2  LIG2       -0.1920
     56 F          -1.2811    0.5699   -7.3310 F       2  LIG2       -0.1920
     57 F           0.5355   -1.5864   -9.3419 F       2  LIG2       -0.1919
     58 F          -1.3083   -1.9695   -8.3339 F       2  LIG2       -0.1919
     59 F          -0.7361    0.5508  -10.5790 F       2  LIG2       -0.1889
     60 F          -2.5090    0.0706   -9.6066 F       2  LIG2       -0.1889
     61 F          -0.7067   -1.9114  -11.7270 F       2  LIG2       -0.1648
     62 F          -2.3883   -2.3897  -10.7495 F       2  LIG2       -0.1648
     63 F          -2.3855   -0.8441  -12.1165 F       2  LIG2       -0.1648
@<TRIPOS>BOND
     1    63    37    1
     2    50    25    1
     3    61    37    1
     4    49    25    1
     5    37    62    1
     6    37    36    1
     7    25    48    1
     8    25    24    1
     9    59    36    1
    10    47    24    1
    11    36    60    1
    12    36    35    1
    13    24    46    1
    14    24    23    1
    15    45    23    1
    16    57    35    1
    17    35    58    1
    18    35    34    1
    19    23    44    1
    20    23    22    1
    21    55    34    1
    22    43    22    1
    23    34    56    1
    24    34    33    1
    25    22    42    1
    26    22    21    1
    27    53    33    1
    28    41    21    1
    29    33    54    1
    30    33    32    1
    31    21    40    1
    32    21    20    1
    33    51    32    1
    34    39    20    1
    35    32    52    1
    36    32    29    1
    37    20    38    1
    38    20    17    1
    39    16    14    1
    40    30    29    1
    41    15    14    1
    42    29    31    1
    43    29    26    1
    44    14    17    1
    45    14     2    1
    46    17    19    1
    47    17    18    1
    48    28    26    1
    49    26    27    1
    50    26     3    1
    51     2     5    1
    52     3     5    1
    53     3     6    1
    54     5     4    1
    55     7     6    1
    56     6     8    2
    57     4     8    1
    58     4    10    1
    59     8     9    1
    60    13    10    1
    61    10    12    1
    62    10    11    1
