@<TRIPOS>MOLECULE
C33 H42 O5
 160 168 0 0 0
SMALL
GASTEIGER

@<TRIPOS>ATOM
      1 O          -5.3828   -5.0494    0.6088 O.2     1  LIG1       -0.2905
      2 O          -3.2968   -7.2663   -1.2556 O.2     1  LIG1       -0.2951
      3 O          -1.8225   -4.7905   -5.0126 O.3     1  LIG1       -0.3406
      4 O          -5.5549   -3.5992   -2.4479 O.2     1  LIG1       -0.2951
      5 O          -4.0383   -5.4339   -4.9916 O.3     1  LIG1       -0.3630
      6 H          -4.0236   -5.0138   -5.6958 H       1  LIG1        0.2128
      7 C          -3.9636   -5.0022   -1.3406 C.3     1  LIG1        0.1557
      8 C          -3.2800   -6.2465   -1.9094 C.2     1  LIG1        0.1665
      9 C          -2.5522   -6.2119   -3.2565 C.3     1  LIG1        0.0936
     10 C          -2.9633   -5.0253   -4.1790 C.3     1  LIG1        0.1937
     11 C          -3.3627   -3.6924   -3.4493 C.3     1  LIG1        0.0885
     12 C          -2.1854   -3.0824   -2.6596 C.3     1  LIG1       -0.0319
     13 H          -1.4462   -2.9474   -3.2726 H       1  LIG1        0.0279
     14 H          -2.4569   -2.2083   -2.3368 H       1  LIG1        0.0279
     15 C          -1.6759   -3.9007   -1.4624 C.3     1  LIG1       -0.0327
     16 H          -1.1128   -3.2764   -0.9584 H       1  LIG1        0.0307
     17 C          -2.8493   -4.2380   -0.4960 C.3     1  LIG1       -0.0057
     18 C          -4.4268   -4.0527   -2.4404 C.2     1  LIG1        0.1662
     19 C          -5.2068   -5.4511   -0.5294 C.2     1  LIG1        0.1841
     20 C          -6.2168   -6.3524   -1.1742 C.ar    1  LIG1        0.0189
     21 C          -7.1944   -6.9129   -0.3641 C.ar    1  LIG1       -0.0512
     22 H          -7.2282   -6.6992    0.5400 H       1  LIG1        0.0625
     23 C          -8.1229   -7.7957   -0.9040 C.ar    1  LIG1       -0.0611
     24 H          -8.7733   -8.1748   -0.3580 H       1  LIG1        0.0618
     25 C          -8.0836   -8.1076   -2.2301 C.ar    1  LIG1       -0.0617
     26 H          -8.7082   -8.7011   -2.5810 H       1  LIG1        0.0618
     27 C          -7.1354   -7.5575   -3.0517 C.ar    1  LIG1       -0.0611
     28 H          -7.1167   -7.7741   -3.9559 H       1  LIG1        0.0618
     29 C          -6.2031   -6.6758   -2.5253 C.ar    1  LIG1       -0.0512
     30 H          -5.5616   -6.2965   -3.0824 H       1  LIG1        0.0625
     31 C          -2.3634   -5.0771    0.6987 C.3     1  LIG1       -0.0578
     32 H          -3.0682   -5.1506    1.3459 H       1  LIG1        0.0236
     33 H          -1.6031   -4.6498    1.1010 H       1  LIG1        0.0236
     34 H          -2.1144   -5.9526    0.3948 H       1  LIG1        0.0236
     35 C          -3.4049   -2.9224    0.0709 C.3     1  LIG1       -0.0578
     36 H          -3.8865   -2.4557   -0.6162 H       1  LIG1        0.0236
     37 H          -2.6792   -2.3755    0.3806 H       1  LIG1        0.0236
     38 H          -3.9964   -3.1134    0.8026 H       1  LIG1        0.0236
     39 C          -0.7298   -5.0644   -1.8355 C.3     1  LIG1       -0.0431
     40 H           0.1559   -4.6898   -1.9612 H       1  LIG1        0.0272
     41 H          -0.6803   -5.6556   -1.0678 H       1  LIG1        0.0272
     42 C          -1.0406   -5.9311   -3.0627 C.3     1  LIG1        0.0056
     43 H          -0.5960   -6.7944   -2.9324 H       1  LIG1        0.0340
     44 C          -0.5940   -5.3809   -4.4457 C.3     1  LIG1        0.0712
     45 C           0.5085   -4.3358   -4.4322 C.3     1  LIG1       -0.0357
     46 H           0.6683   -4.0279   -5.3276 H       1  LIG1        0.0257
     47 H           1.3123   -4.7226   -4.0785 H       1  LIG1        0.0257
     48 H           0.2406   -3.5953   -3.8828 H       1  LIG1        0.0257
     49 C          -0.1387   -6.5066   -5.3832 C.3     1  LIG1       -0.0357
     50 H          -0.8413   -7.1542   -5.4714 H       1  LIG1        0.0257
     51 H           0.6429   -6.9293   -5.0195 H       1  LIG1        0.0257
     52 H           0.0688   -6.1396   -6.2460 H       1  LIG1        0.0257
     53 C          -2.8502   -7.5747   -3.9542 C.3     1  LIG1       -0.0167
     54 H          -3.7758   -7.8088   -3.7853 H       1  LIG1        0.0319
     55 H          -2.7502   -7.4559   -4.9117 H       1  LIG1        0.0319
     56 C          -1.9867   -8.7257   -3.5292 C.2     1  LIG1       -0.0842
     57 H          -1.7370   -8.7547   -2.6338 H       1  LIG1        0.0572
     58 C          -1.5431   -9.7121   -4.3078 C.2     1  LIG1       -0.0796
     59 C          -1.8775   -9.8399   -5.7708 C.3     1  LIG1       -0.0440
     60 H          -2.4699  -10.5837   -5.8998 H       1  LIG1        0.0274
     61 H          -1.0713   -9.9816   -6.2722 H       1  LIG1        0.0274
     62 H          -2.3045   -9.0345   -6.0729 H       1  LIG1        0.0274
     63 C          -0.6629  -10.8102   -3.7779 C.3     1  LIG1       -0.0440
     64 H           0.1937  -10.7706   -4.2100 H       1  LIG1        0.0274
     65 H          -1.0711  -11.6608   -3.9540 H       1  LIG1        0.0274
     66 H          -0.5484  -10.7000   -2.8309 H       1  LIG1        0.0274
     67 C          -3.9105   -2.6979   -4.4996 C.3     1  LIG1       -0.0171
     68 H          -3.2852   -2.6716   -5.2411 H       1  LIG1        0.0319
     69 H          -4.7460   -3.0522   -4.8407 H       1  LIG1        0.0319
     70 C          -4.1534   -1.2914   -4.0526 C.2     1  LIG1       -0.0842
     71 H          -3.4140   -0.8337   -3.7242 H       1  LIG1        0.0572
     72 C          -5.2972   -0.6181   -4.0671 C.2     1  LIG1       -0.0796
     73 C          -6.6093   -1.1809   -4.4971 C.3     1  LIG1       -0.0440
     74 H          -6.8576   -0.8019   -5.3440 H       1  LIG1        0.0274
     75 H          -7.2790   -0.9672   -3.8430 H       1  LIG1        0.0274
     76 H          -6.5370   -2.1339   -4.5819 H       1  LIG1        0.0274
     77 C          -5.3435    0.8264   -3.6326 C.3     1  LIG1       -0.0440
     78 H          -4.4789    1.0914   -3.3096 H       1  LIG1        0.0274
     79 H          -5.9918    0.9297   -2.9321 H       1  LIG1        0.0274
     80 H          -5.5886    1.3777   -4.3793 H       1  LIG1        0.0274
     81 O          -1.9661   -7.2950  -13.4110 O.2     2  LIG2       -0.2905
     82 O          -4.8429   -7.3169  -11.4052 O.2     2  LIG2       -0.2951
     83 O          -3.9823   -4.4739   -7.7192 O.3     2  LIG2       -0.3406
     84 O          -0.5655   -6.1279  -10.5226 O.2     2  LIG2       -0.2951
     85 O          -2.8060   -6.4675   -7.7826 O.3     2  LIG2       -0.3630
     86 H          -3.1971   -6.4970   -7.0629 H       2  LIG2        0.2128
     87 C          -2.7755   -6.1809  -11.4381 C.3     2  LIG2        0.1557
     88 C          -4.1082   -6.5780  -10.7928 C.2     2  LIG2        0.1665
     89 C          -4.5232   -6.0335   -9.4288 C.3     2  LIG2        0.0936
     90 C          -3.3587   -5.4419   -8.5767 C.3     2  LIG2        0.1937
     91 C          -2.2021   -4.7709   -9.3689 C.3     2  LIG2        0.0885
     92 C          -2.6388   -3.5163  -10.1625 C.3     2  LIG2       -0.0319
     93 H          -3.0468   -2.8892   -9.5455 H       2  LIG2        0.0279
     94 H          -1.8457   -3.0925  -10.5271 H       2  LIG2        0.0279
     95 C          -3.6243   -3.7787  -11.3148 C.3     2  LIG2       -0.0327
     96 H          -3.6222   -2.9495  -11.8376 H       2  LIG2        0.0307
     97 C          -3.0794   -4.8595  -12.2887 C.3     2  LIG2       -0.0057
     98 C          -1.7182   -5.7631  -10.4137 C.2     2  LIG2        0.1662
     99 C          -2.2444   -7.3952  -12.2383 C.2     2  LIG2        0.1841
    100 C          -2.0910   -8.7234  -11.5540 C.ar    2  LIG2        0.0189
    101 C          -1.7802   -9.8192  -12.3561 C.ar    2  LIG2       -0.0512
    102 H          -1.6420   -9.6993  -13.2681 H       2  LIG2        0.0625
    103 C          -1.6759  -11.0899  -11.8027 C.ar    2  LIG2       -0.0611
    104 H          -1.4729  -11.8170  -12.3452 H       2  LIG2        0.0618
    105 C          -1.8726  -11.2729  -10.4527 C.ar    2  LIG2       -0.0617
    106 H          -1.8122  -12.1246  -10.0847 H       2  LIG2        0.0618
    107 C          -2.1598  -10.1863   -9.6436 C.ar    2  LIG2       -0.0611
    108 H          -2.2843  -10.3094   -8.7301 H       2  LIG2        0.0618
    109 C          -2.2631   -8.9202  -10.1900 C.ar    2  LIG2       -0.0512
    110 H          -2.4501   -8.1942   -9.6393 H       2  LIG2        0.0625
    111 C          -4.0678   -5.1358  -13.4440 C.3     2  LIG2       -0.0578
    112 H          -3.6292   -5.6528  -14.1236 H       2  LIG2        0.0236
    113 H          -4.3639   -4.3023  -13.8174 H       2  LIG2        0.0236
    114 H          -4.8238   -5.6229  -13.1089 H       2  LIG2        0.0236
    115 C          -1.7880   -4.3312  -12.9395 C.3     2  LIG2       -0.0578
    116 H          -1.1291   -4.1713  -12.2596 H       2  LIG2        0.0236
    117 H          -1.9752   -3.5120  -13.4030 H       2  LIG2        0.0236
    118 H          -1.4538   -4.9819  -13.5616 H       2  LIG2        0.0236
    119 C          -5.0877   -3.9502  -10.8603 C.3     2  LIG2       -0.0431
    120 H          -5.4550   -3.0621  -10.7284 H       2  LIG2        0.0272
    121 H          -5.5742   -4.3498  -11.5980 H       2  LIG2        0.0272
    122 C          -5.4133   -4.7732   -9.5976 C.3     2  LIG2        0.0056
    123 H          -6.3393   -5.0819   -9.6843 H       2  LIG2        0.0340
    124 C          -5.2982   -4.0504   -8.2271 C.3     2  LIG2        0.0712
    125 C          -6.3801   -4.5292   -7.2487 C.3     2  LIG2       -0.0357
    126 H          -6.3809   -5.4888   -7.2170 H       2  LIG2        0.0257
    127 H          -7.2385   -4.2179   -7.5440 H       2  LIG2        0.0257
    128 H          -6.1966   -4.1805   -6.3733 H       2  LIG2        0.0257
    129 C          -5.3366   -2.5322   -8.2506 C.3     2  LIG2       -0.0357
    130 H          -5.1729   -2.1947   -7.3669 H       2  LIG2        0.0257
    131 H          -6.2003   -2.2393   -8.5501 H       2  LIG2        0.0257
    132 H          -4.6618   -2.2044   -8.8489 H       2  LIG2        0.0257
    133 C          -5.1900   -7.2053   -8.6581 C.3     2  LIG2       -0.0167
    134 H          -4.6658   -8.0062   -8.8142 H       2  LIG2        0.0319
    135 H          -5.1419   -7.0088   -7.7095 H       2  LIG2        0.0319
    136 C          -6.6358   -7.5114   -9.0043 C.2     2  LIG2       -0.0842
    137 H          -6.9730   -7.1497   -9.7916 H       2  LIG2        0.0572
    138 C          -7.4433   -8.2446   -8.2835 C.2     2  LIG2       -0.0796
    139 C          -7.0420   -8.8949   -6.9939 C.3     2  LIG2       -0.0440
    140 H          -6.7422   -9.7898   -7.1665 H       2  LIG2        0.0274
    141 H          -7.7963   -8.9188   -6.3998 H       2  LIG2        0.0274
    142 H          -6.3322   -8.3912   -6.5889 H       2  LIG2        0.0274
    143 C          -8.8674   -8.5082   -8.7021 C.3     2  LIG2       -0.0440
    144 H          -9.0480   -8.0538   -9.5285 H       2  LIG2        0.0274
    145 H          -9.4658   -8.1869   -8.0234 H       2  LIG2        0.0274
    146 H          -8.9967   -9.4520   -8.8216 H       2  LIG2        0.0274
    147 C          -1.0661   -4.4233   -8.3655 C.3     2  LIG2       -0.0171
    148 H          -1.4757   -4.2219   -7.5095 H       2  LIG2        0.0319
    149 H          -0.5224   -5.2169   -8.2440 H       2  LIG2        0.0319
    150 C          -0.1524   -3.2873   -8.7171 C.2     2  LIG2       -0.0842
    151 H           0.3960   -3.4048   -9.4592 H       2  LIG2        0.0572
    152 C          -0.0492   -2.1374   -8.0758 C.2     2  LIG2       -0.0796
    153 C          -0.9176   -1.7576   -6.9150 C.3     2  LIG2       -0.0440
    154 H          -1.5110   -1.0497   -7.1770 H       2  LIG2        0.0274
    155 H          -0.3669   -1.4602   -6.1871 H       2  LIG2        0.0274
    156 H          -1.4317   -2.5192   -6.6368 H       2  LIG2        0.0274
    157 C           0.9334   -1.0716   -8.4653 C.3     2  LIG2       -0.0440
    158 H           1.5304   -0.9040   -7.7322 H       2  LIG2        0.0274
    159 H           0.4609   -0.2652   -8.6841 H       2  LIG2        0.0274
    160 H           1.4375   -1.3644   -9.2279 H       2  LIG2        0.0274
@<TRIPOS>BOND
     1   112   111    1
     2   113   111    1
     3   118   115    1
     4   111   114    1
     5   111    97    1
     6    81    99    2
     7   117   115    1
     8   102   101    1
     9   115    97    1
    10   115   116    1
    11   101   103   ar
    12   101   100   ar
    13   104   103    1
    14    97    87    1
    15    97    95    1
    16    99   100    1
    17    99    87    1
    18    96    95    1
    19   103   105   ar
    20   121   119    1
    21   100   109   ar
    22    87    88    1
    23    87    98    1
    24    82    88    2
    25    95   119    1
    26    95    92    1
    27   119   120    1
    28   119   122    1
    29    88    89    1
    30    94    92    1
    31    84    98    2
    32   105   106    1
    33   105   107   ar
    34    98    91    1
    35   109   107   ar
    36   109   110    1
    37    92    93    1
    38    92    91    1
    39   137   136    1
    40   123   122    1
    41   107   108    1
    42   122    89    1
    43   122   124    1
    44   144   143    1
    45   151   150    1
    46    89   133    1
    47    89    90    1
    48    91    90    1
    49    91   147    1
    50   160   157    1
    51   136   133    1
    52   136   138    2
    53   132   129    1
    54   146   143    1
    55   134   133    1
    56   150   147    1
    57   150   152    2
    58   143   138    1
    59   143   145    1
    60   159   157    1
    61   133   135    1
    62    90    85    1
    63    90    83    1
    64   131   129    1
    65   157   152    1
    66   157   158    1
    67   147   149    1
    68   147   148    1
    69   138   139    1
    70   129   124    1
    71   129   130    1
    72   124    83    1
    73   124   125    1
    74   152   153    1
    75    85    86    1
    76   127   125    1
    77   125   126    1
    78   125   128    1
    79   154   153    1
    80   140   139    1
    81   139   142    1
    82   139   141    1
    83   153   156    1
    84   153   155    1
    85    61    59    1
    86    52    49    1
    87    62    59    1
    88    60    59    1
    89    59    58    1
    90     6     5    1
    91    50    49    1
    92    49    51    1
    93    49    44    1
    94    74    73    1
    95    46    45    1
    96    68    67    1
    97     3    44    1
    98     3    10    1
    99     5    10    1
   100    55    53    1
   101    69    67    1
   102    76    73    1
   103    67    70    1
   104    67    11    1
   105    73    72    1
   106    73    75    1
   107    44    45    1
   108    44    42    1
   109    45    47    1
   110    45    48    1
   111    80    77    1
   112    58    63    1
   113    58    56    2
   114    64    63    1
   115    10    11    1
   116    10     9    1
   117    72    70    2
   118    72    77    1
   119    70    71    1
   120    28    27    1
   121    53    54    1
   122    53    56    1
   123    53     9    1
   124    65    63    1
   125    63    66    1
   126    77    78    1
   127    77    79    1
   128    56    57    1
   129    11    12    1
   130    11    18    1
   131    13    12    1
   132     9    42    1
   133     9     8    1
   134    30    29    1
   135    42    43    1
   136    42    39    1
   137    27    29   ar
   138    27    25   ar
   139    12    14    1
   140    12    15    1
   141    26    25    1
   142    29    20   ar
   143     4    18    2
   144    18     7    1
   145    25    23   ar
   146    40    39    1
   147     8     7    1
   148     8     2    2
   149    39    15    1
   150    39    41    1
   151    15    16    1
   152    15    17    1
   153     7    19    1
   154     7    17    1
   155    20    19    1
   156    20    21   ar
   157    23    21   ar
   158    23    24    1
   159    36    35    1
   160    19     1    2
   161    17    35    1
   162    17    31    1
   163    21    22    1
   164    35    37    1
   165    35    38    1
   166    34    31    1
   167    31    33    1
   168    31    32    1
