@<TRIPOS>MOLECULE
4S-4-p-hydroxyphenyl-2,2,4-trimethylchroman, 2S,4R-4-p-hydroxyphenyl-2,4-dimethylchroman, 0.33 Tetrachloromethane solvate
 80 83 0 0 0
SMALL
GASTEIGER

@<TRIPOS>ATOM
      1 O           4.6312    4.0767   14.1779 O.3     1  LIG1       -0.4859
      2 O           2.4019    1.2305    7.5696 O.3     1  LIG1       -0.5068
      3 H           2.4088    0.5428    7.5778 H       1  LIG1        0.2921
      4 C           4.4629    2.6659   13.8481 C.3     1  LIG1        0.1062
      5 C           5.6689    2.1962   13.0447 C.3     1  LIG1        0.0001
      6 H           5.5439    1.2397   12.8199 H       1  LIG1        0.0315
      7 H           6.4747    2.2632   13.6177 H       1  LIG1        0.0315
      8 C           5.9316    2.9743   11.7383 C.3     1  LIG1        0.0249
      9 C           5.7707    4.4582   12.0432 C.ar    1  LIG1        0.0046
     10 C           6.2765    5.4401   11.1730 C.ar    1  LIG1       -0.0543
     11 H           6.7244    5.1657   10.3819 H       1  LIG1        0.0622
     12 C           6.1421    6.7961   11.4323 C.ar    1  LIG1       -0.0612
     13 H           6.4787    7.4358   10.8158 H       1  LIG1        0.0618
     14 C           5.5139    7.2122   12.5996 C.ar    1  LIG1       -0.0583
     15 H           5.4191    8.1395   12.7843 H       1  LIG1        0.0619
     16 C           5.0250    6.2665   13.4964 C.ar    1  LIG1       -0.0196
     17 H           4.6184    6.5503   14.3065 H       1  LIG1        0.0654
     18 C           5.1304    4.9035   13.2116 C.ar    1  LIG1        0.1253
     19 C           5.0125    2.5258   10.5966 C.ar    1  LIG1       -0.0367
     20 C           4.9673    1.1780   10.2138 C.ar    1  LIG1       -0.0543
     21 H           5.5293    0.5520   10.6567 H       1  LIG1        0.0622
     22 C           4.1225    0.7305    9.2035 C.ar    1  LIG1       -0.0199
     23 H           4.1164   -0.1886    8.9587 H       1  LIG1        0.0654
     24 C           3.2870    1.6320    8.5536 C.ar    1  LIG1        0.1169
     25 C           3.3317    2.9711    8.8908 C.ar    1  LIG1       -0.0199
     26 H           2.7793    3.5948    8.4323 H       1  LIG1        0.0654
     27 C           4.1807    3.4053    9.8967 C.ar    1  LIG1       -0.0543
     28 H           4.1988    4.3285   10.1170 H       1  LIG1        0.0622
     29 C           7.3923    2.6817   11.3344 C.3     1  LIG1       -0.0512
     30 H           7.5875    3.1187   10.4787 H       1  LIG1        0.0241
     31 H           7.5198    1.7135   11.2431 H       1  LIG1        0.0241
     32 H           7.9965    3.0267   12.0232 H       1  LIG1        0.0241
     33 C           4.4290    1.9614   15.1922 C.3     1  LIG1       -0.0252
     34 H           5.2810    2.0999   15.6551 H       1  LIG1        0.0268
     35 H           4.2837    1.0028   15.0543 H       1  LIG1        0.0268
     36 H           3.6995    2.3276   15.7341 H       1  LIG1        0.0268
     37 C           3.1285    2.5056   13.1237 C.3     1  LIG1       -0.0252
     38 H           2.3955    2.7277   13.7346 H       1  LIG1        0.0268
     39 H           3.0302    1.5778   12.8199 H       1  LIG1        0.0268
     40 H           3.1033    3.1072   12.3503 H       1  LIG1        0.0268
     41 O          -1.2463    6.0636    0.3046 O.3     2  LIG2       -0.4888
     42 O           0.1396    2.7482    7.2067 O.3     2  LIG2       -0.5068
     43 H           0.7144    2.4288    7.2551 H       2  LIG2        0.2921
     44 C           0.1913    5.8881    0.3004 C.3     2  LIG2        0.0985
     45 H           0.6321    6.7665    0.1168 H       2  LIG2        0.0730
     46 C           0.6272    5.3789    1.6502 C.3     2  LIG2       -0.0025
     47 H           1.6001    5.2002    1.6291 H       2  LIG2        0.0312
     48 H           0.1660    4.5240    1.8382 H       2  LIG2        0.0312
     49 C           0.3196    6.3858    2.7963 C.3     2  LIG2        0.0246
     50 C          -0.9980    7.0885    2.5014 C.ar    2  LIG2        0.0046
     51 C          -1.5345    8.0112    3.4128 C.ar    2  LIG2       -0.0543
     52 H          -1.0557    8.1993    4.2128 H       2  LIG2        0.0622
     53 C          -2.7395    8.6550    3.1802 C.ar    2  LIG2       -0.0612
     54 H          -3.0807    9.2734    3.8134 H       2  LIG2        0.0618
     55 C          -3.4445    8.3843    2.0052 C.ar    2  LIG2       -0.0583
     56 H          -4.2864    8.7996    1.8494 H       2  LIG2        0.0619
     57 C          -2.9240    7.5181    1.0749 C.ar    2  LIG2       -0.0196
     58 H          -3.3954    7.3530    0.2671 H       2  LIG2        0.0654
     59 C          -1.7002    6.8787    1.3130 C.ar    2  LIG2        0.1249
     60 C           0.2723    5.5385    4.0815 C.ar    2  LIG2       -0.0367
     61 C           1.4531    4.9608    4.5789 C.ar    2  LIG2       -0.0543
     62 H           2.2879    5.2002    4.1917 H       2  LIG2        0.0622
     63 C           1.4261    4.0461    5.6238 C.ar    2  LIG2       -0.0199
     64 H           2.2348    3.6684    5.9443 H       2  LIG2        0.0654
     65 C           0.2160    3.6852    6.2002 C.ar    2  LIG2        0.1169
     66 C          -0.9654    4.2577    5.7473 C.ar    2  LIG2       -0.0199
     67 H          -1.7953    4.0341    6.1546 H       2  LIG2        0.0654
     68 C          -0.9243    5.1673    4.6857 C.ar    2  LIG2       -0.0543
     69 H          -1.7369    5.5429    4.3686 H       2  LIG2        0.0622
     70 C           1.4288    7.4574    2.8664 C.3     2  LIG2       -0.0513
     71 H           1.2509    8.0636    3.6153 H       2  LIG2        0.0241
     72 H           1.4447    7.9670    2.0296 H       2  LIG2        0.0241
     73 H           2.2959    7.0218    2.9988 H       2  LIG2        0.0241
     74 C           0.5124    4.9212   -0.8156 C.3     2  LIG2       -0.0278
     75 H           0.1208    5.2462   -1.6524 H       2  LIG2        0.0265
     76 H           0.1394    4.0410   -0.6020 H       2  LIG2        0.0265
     77 H           1.4846    4.8483   -0.9158 H       2  LIG2        0.0265
     78 CL          1.5556   -0.5656   14.7838 Cl      1  LIG1       -0.0944
     79 CL         -0.0000   -0.0000   12.4499 Cl      1  LIG1       -0.0944
     80 C          -0.0000   -0.0000   14.1897 C.3     1  LIG1        0.1888
@<TRIPOS>BOND
     1    75    74    1
     2    77    74    1
     3    74    76    1
     4    74    44    1
     5    45    44    1
     6    58    57    1
     7    44    41    1
     8    44    46    1
     9    41    59    1
    10    57    59   ar
    11    57    55   ar
    12    59    50   ar
    13    47    46    1
    14    46    48    1
    15    46    49    1
    16    56    55    1
    17    55    53   ar
    18    72    70    1
    19    50    49    1
    20    50    51   ar
    21    49    70    1
    22    49    60    1
    23    70    73    1
    24    70    71    1
    25    53    51   ar
    26    53    54    1
    27    51    52    1
    28    60    61   ar
    29    60    68   ar
    30    62    61    1
    31    69    68    1
    32    61    63   ar
    33    68    66   ar
    34    63    64    1
    35    63    65   ar
    36    66    67    1
    37    66    65   ar
    38    65    42    1
    39    42    43    1
    40     2     3    1
    41     2    24    1
    42    26    25    1
    43    24    25   ar
    44    24    22   ar
    45    25    27   ar
    46    23    22    1
    47    22    20   ar
    48    27    28    1
    49    27    19   ar
    50    20    19   ar
    51    20    21    1
    52    11    10    1
    53    30    29    1
    54    19     8    1
    55    13    12    1
    56    10    12   ar
    57    10     9   ar
    58    31    29    1
    59    29     8    1
    60    29    32    1
    61    12    14   ar
    62     8     9    1
    63     8     5    1
    64     9    18   ar
    65    40    37    1
    66    79    80    1
    67    14    15    1
    68    14    16   ar
    69    39    37    1
    70     6     5    1
    71     5     7    1
    72     5     4    1
    73    37    38    1
    74    37     4    1
    75    18    16   ar
    76    18     1    1
    77    16    17    1
    78     4     1    1
    79     4    33    1
    80    80    78    1
    81    35    33    1
    82    33    34    1
    83    33    36    1
