@<TRIPOS>MOLECULE
?
 32 33 0 0 0
SMALL
GASTEIGER

@<TRIPOS>ATOM
      1 C           3.6220   19.4761   13.9343 C.ar    1  LIG1       -0.0612
      2 H           3.4505   20.3013   13.5387 H       1  LIG1        0.0618
      3 C           2.6118   18.8088   14.6380 C.ar    1  LIG1       -0.0611
      4 H           1.7613   19.1829   14.6893 H       1  LIG1        0.0618
      5 C           4.8657   18.9065   13.8306 C.ar    1  LIG1       -0.0540
      6 H           5.5327   19.3486   13.3581 H       1  LIG1        0.0624
      7 C           2.8675   17.6041   15.2540 C.ar    1  LIG1       -0.0534
      8 H           2.1836   17.1738   15.7149 H       1  LIG1        0.0624
      9 C           5.1509   17.6567   14.4306 C.ar    1  LIG1       -0.0173
     10 C           4.1499   17.0069   15.2008 C.ar    1  LIG1       -0.0096
     11 C           6.4064   17.0048   14.2172 C.ar    1  LIG1       -0.0534
     12 H           7.0975   17.4638   13.7974 H       1  LIG1        0.0624
     13 C           6.6003   15.7257   14.6195 C.ar    1  LIG1       -0.0534
     14 H           7.3976   15.2959   14.4106 H       1  LIG1        0.0624
     15 C           5.5986   15.0285   15.3606 C.ar    1  LIG1       -0.0167
     16 C           4.4517   15.7169   15.7983 C.ar    1  LIG1       -0.0019
     17 C           5.7205   13.6282   15.6135 C.ar    1  LIG1       -0.0534
     18 H           6.5087   13.1850   15.3983 H       1  LIG1        0.0624
     19 C           4.6903   12.9421   16.1676 C.ar    1  LIG1       -0.0528
     20 H           4.7131   12.0130   16.1854 H       1  LIG1        0.0624
     21 C           3.5727   13.6315   16.7228 C.ar    1  LIG1       -0.0089
     22 C           3.5727   15.0467   16.7228 C.ar    1  LIG1       -0.0007
     23 C           3.8389   15.9392   11.7084 C.2     2  LIG2        0.0527
     24 C           2.5648   16.6018   11.8141 C.2     2  LIG2        0.1711
     25 C           2.3214   17.8212   11.3126 C.2     2  LIG2        0.1969
     26 C           4.0823   14.6958   12.2448 C.2     2  LIG2        0.1388
     27 C           3.1269   13.9601   13.0344 C.1     2  LIG2        0.1109
     28 C           5.3168   13.9864   12.0522 C.1     2  LIG2        0.1109
     29 N           2.4246   13.3198   13.6701 N.1     2  LIG2       -0.1901
     30 N           6.2652   13.3597   11.9131 N.1     2  LIG2       -0.1901
     31 F           1.5713   15.9494   12.4170 F       2  LIG2       -0.2017
     32 F           1.1019   18.3433   11.4633 F       2  LIG2       -0.1993
@<TRIPOS>BOND
     1    25    32    1
     2    25    24    2
     3    23    24    1
     4    23    26    2
     5    24    31    1
     6    30    28    3
     7    28    26    1
     8    26    27    1
     9    27    29    3
    10     6     5    1
    11     2     1    1
    12    12    11    1
    13     5     1   ar
    14     5     9   ar
    15     1     3   ar
    16    11     9   ar
    17    11    13   ar
    18    14    13    1
    19     9    10   ar
    20    13    15   ar
    21     3     4    1
    22     3     7   ar
    23    10     7   ar
    24    10    16   ar
    25     7     8    1
    26    15    17   ar
    27    15    16   ar
    28    18    17    1
    29    17    19   ar
    30    16    22   ar
    31    19    20    1
    32    19    21   ar
    33    21    22   ar
