@<TRIPOS>MOLECULE
nitranilic acid
 18 13 0 0 0
SMALL
GASTEIGER

@<TRIPOS>ATOM
      1 O           0.6977   11.5638    3.0149 O.3     1  LIG1       -0.2118
      2 O          -0.1463    9.4008    1.8858 O.2     1  LIG1       -0.2910
      3 O          -0.8516    6.8450    2.2398 O.2     1  LIG1       -0.1305
      4 O          -2.0997    6.5025    3.9623 O.2     1  LIG1       -0.1305
      5 N          -1.2870    7.1857    3.3421 N.pl3   1  LIG1        0.0423
      6 C           0.2772   10.7130    3.7980 C.3     1  LIG1        0.2481
      7 C          -0.2506    9.4170    3.1277 C.2     1  LIG1        0.2135
      8 C          -0.8147    8.4091    3.9429 C.3     1  LIG1        0.2599
      9 O           0.8374   11.3265    0.2518 O.3     2  HOH2       -0.4105
     10 O          -0.0228   13.5927    0.4990 O.3     3  HOH3       -0.4105
     11 H           0.3537   12.3875    0.3467 H       4  UNK4        0.0000
     12 H           0.5386   10.7833    0.9264 H       0  HOH0        0.2052
     13 H           0.5933   10.9333   -0.5503 H       0  HOH0        0.2052
     14 H          -0.5686   13.7416    1.2290 H       0  HOH0        0.2052
     15 H          -0.4333   13.9801   -0.2201 H       0  HOH0        0.2052
     16 O           0.8013    5.1816    6.3424 O.3     5  HOH5       -0.4105
     17 H           1.4455    4.5530    6.5772 H       0  HOH0        0.2052
     18 H           1.3255    5.9091    6.1012 H       0  HOH0        0.2052
@<TRIPOS>BOND
     1    13     9    1
     2    15    10    1
     3     9    12    1
     4    10    14    1
     5     2     7    2
     6     3     5    2
     7     1     6    1
     8     7     6    1
     9     7     8    1
    10     5     8    1
    11     5     4    2
    12    18    16    1
    13    16    17    1
