@<TRIPOS>MOLECULE
?
 81 80 0 0 0
SMALL
GASTEIGER

@<TRIPOS>ATOM
      1 O           8.4775    5.4124    3.4575 O.3     1  LIG1       -0.5068
      2 H           8.2827    4.9397    2.8181 H       1  LIG1        0.2921
      3 O           6.6697    1.7831    8.3741 O.2     1  LIG1       -0.2685
      4 O           4.7667    4.8224   13.4325 O.2     1  LIG1       -0.4330
      5 O           4.1848    6.2334   15.5253 O.2     1  LIG1       -0.1231
      6 O           3.2417    4.5355   16.5059 O.2     1  LIG1       -0.1231
      7 N           6.5048    3.8553    9.2816 N.am    1  LIG1       -0.2029
      8 H           6.6697    4.6963    9.2084 H       1  LIG1        0.1776
      9 N           5.9142    3.3620   10.4180 N.2     1  LIG1       -0.1844
     10 N           3.8416    5.0527   15.5770 N.pl3   1  LIG1        0.0926
     11 C           8.0999    4.7985    4.6023 C.ar    1  LIG1        0.1169
     12 C           8.3247    5.4591    5.8000 C.ar    1  LIG1       -0.0195
     13 H           8.7427    6.2904    5.7931 H       1  LIG1        0.0654
     14 C           7.9387    4.9039    6.9980 C.ar    1  LIG1       -0.0461
     15 H           8.0940    5.3624    7.7918 H       1  LIG1        0.0626
     16 C           7.3130    3.6543    7.0287 C.ar    1  LIG1        0.0386
     17 C           7.1100    2.9936    5.8256 C.ar    1  LIG1       -0.0461
     18 H           6.7146    2.1526    5.8314 H       1  LIG1        0.0626
     19 C           7.4809    3.5554    4.6222 C.ar    1  LIG1       -0.0195
     20 H           7.3173    3.1034    3.8250 H       1  LIG1        0.0654
     21 C           6.8263    3.0045    8.2711 C.2     1  LIG1        0.2633
     22 C           5.6292    4.2313   11.3017 C.2     1  LIG1        0.0879
     23 H           5.8515    5.1245   11.1688 H       1  LIG1        0.0883
     24 C           4.9615    3.8183   12.5032 C.ar    1  LIG1        0.1501
     25 C           4.4669    2.6470   12.9833 C.ar    1  LIG1       -0.0125
     26 H           4.4757    1.8244   12.5472 H       1  LIG1        0.0656
     27 C           3.9422    2.9099   14.2561 C.ar    1  LIG1        0.0086
     28 H           3.5327    2.3058   14.8331 H       1  LIG1        0.0673
     29 C           4.1565    4.2182   14.4636 C.ar    1  LIG1        0.2802
     30 O          10.7373    0.2487    3.1179 O.3     2  LIG2       -0.5068
     31 H          11.0113   -0.3608    2.6419 H       2  LIG2        0.2921
     32 O           8.9203   -2.8857    8.3117 O.2     2  LIG2       -0.2685
     33 O           6.6235   -0.1169   13.1648 O.2     2  LIG2       -0.4330
     34 O           6.0963    1.0638   15.4285 O.2     2  LIG2       -0.1231
     35 O           5.9973   -0.8302   16.4841 O.2     2  LIG2       -0.1231
     36 N           8.1508   -0.8313    8.8420 N.am    2  LIG2       -0.2029
     37 H           8.0248   -0.0109    8.6188 H       2  LIG2        0.1776
     38 N           7.7282   -1.3061   10.0451 N.2     2  LIG2       -0.1844
     39 N           6.1632   -0.1608   15.4625 N.pl3   2  LIG2        0.0926
     40 C          10.2683   -0.2608    4.2788 C.ar    2  LIG2        0.1169
     41 C           9.5141    0.5813    5.0752 C.ar    2  LIG2       -0.0195
     42 H           9.3282    1.4463    4.7899 H       2  LIG2        0.0654
     43 C           9.0390    0.1413    6.2901 C.ar    2  LIG2       -0.0461
     44 H           8.5423    0.7182    6.8231 H       2  LIG2        0.0626
     45 C           9.2929   -1.1562    6.7304 C.ar    2  LIG2        0.0386
     46 C          10.0552   -1.9874    5.9129 C.ar    2  LIG2       -0.0461
     47 H          10.2408   -2.8545    6.1913 H       2  LIG2        0.0626
     48 C          10.5401   -1.5549    4.7026 C.ar    2  LIG2       -0.0195
     49 H          11.0477   -2.1254    4.1696 H       2  LIG2        0.0654
     50 C           8.7836   -1.7071    8.0043 C.2     2  LIG2        0.2633
     51 C           7.2522   -0.4738   10.8863 C.2     2  LIG2        0.0879
     52 H           7.1313    0.4249   10.6826 H       2  LIG2        0.0883
     53 C           6.9171   -1.0214   12.1693 C.ar    2  LIG2        0.1501
     54 C           6.8987   -2.2819   12.6671 C.ar    2  LIG2       -0.0125
     55 H           7.0481   -3.0664   12.1911 H       2  LIG2        0.0656
     56 C           6.6113   -2.1787   14.0374 C.ar    2  LIG2        0.0086
     57 H           6.5394   -2.8741   14.6493 H       2  LIG2        0.0673
     58 C           6.4611   -0.8671   14.2771 C.ar    2  LIG2        0.2802
     59 S           9.1475    3.3367    0.6076 S.3     3  LIG3       -0.0495
     60 O           7.9332    3.9190    1.3022 O.3     3  LIG3       -0.1626
     61 C           8.9387    3.6771   -1.1203 C.3     3  LIG3       -0.0004
     62 H           8.9372    4.6268   -1.2597 H       3  LIG3        0.0355
     63 H           8.1056    3.3076   -1.4205 H       3  LIG3        0.0355
     64 H           9.6612    3.2816   -1.6120 H       3  LIG3        0.0355
     65 C           8.8969    1.5745    0.5621 C.3     3  LIG3       -0.0004
     66 H           8.0462    1.3833    0.1608 H       3  LIG3        0.0355
     67 H           8.9145    1.2257    1.4550 H       3  LIG3        0.0355
     68 H           9.5945    1.1659    0.0459 H       3  LIG3        0.0355
     69 S          10.2356   -2.1541    0.7558 S.3     4  LIG4       -0.0495
     70 O          11.5035   -1.6260    1.4121 O.3     4  LIG4       -0.1626
     71 C          10.4354   -1.8961   -0.9882 C.3     4  LIG4       -0.0004
     72 H          11.2687   -2.2764   -1.2750 H       4  LIG4        0.0355
     73 H          10.4311   -0.9551   -1.1755 H       4  LIG4        0.0355
     74 H           9.7130   -2.3188   -1.4588 H       4  LIG4        0.0355
     75 C          10.3567   -3.9237    0.7723 C.3     4  LIG4       -0.0004
     76 H          10.2496   -4.2443    1.6694 H       4  LIG4        0.0355
     77 H          11.2165   -4.1889    0.4403 H       4  LIG4        0.0355
     78 H           9.6694   -4.2975    0.2144 H       4  LIG4        0.0355
     79 O           6.6692    6.6607    9.5370 O.3     5  HOH5       -0.4105
     80 H           7.3247    7.1716    9.3616 H       0  HOH0        0.2052
     81 H           5.9429    7.0945    9.4573 H       0  HOH0        0.2052
@<TRIPOS>BOND
     1    64    61    1
     2    74    71    1
     3    63    61    1
     4    72    71    1
     5    62    61    1
     6    73    71    1
     7    61    59    1
     8    71    69    1
     9    68    65    1
    10    66    65    1
    11    78    75    1
    12    77    75    1
    13    65    59    1
    14    65    67    1
    15    59    60    1
    16    69    75    1
    17    69    70    1
    18    75    76    1
    19    31    30    1
    20     2     1    1
    21    30    40    1
    22     1    11    1
    23    20    19    1
    24    49    48    1
    25    40    48   ar
    26    40    41   ar
    27    11    19   ar
    28    11    12   ar
    29    19    17   ar
    30    48    46   ar
    31    42    41    1
    32    41    43   ar
    33    13    12    1
    34    12    14   ar
    35    17    18    1
    36    17    16   ar
    37    46    47    1
    38    46    45   ar
    39    43    45   ar
    40    43    44    1
    41    45    50    1
    42    14    16   ar
    43    14    15    1
    44    16    21    1
    45    50    32    2
    46    50    36   am
    47    21     3    2
    48    21     7   am
    49    37    36    1
    50    36    38    1
    51     8     7    1
    52     7     9    1
    53    80    79    1
    54    81    79    1
    55    38    51    2
    56     9    22    2
    57    52    51    1
    58    51    53    1
    59    23    22    1
    60    22    24    1
    61    53    54   ar
    62    53    33   ar
    63    55    54    1
    64    24    25   ar
    65    24     4   ar
    66    26    25    1
    67    54    56   ar
    68    25    27   ar
    69    33    58   ar
    70     4    29   ar
    71    56    58   ar
    72    56    57    1
    73    27    29   ar
    74    27    28    1
    75    58    39    1
    76    29    10    1
    77    34    39    2
    78    39    35    2
    79     5    10    2
    80    10     6    2
