@<TRIPOS>MOLECULE
?
 41 41 0 0 0
SMALL
GASTEIGER

@<TRIPOS>ATOM
      1 S           1.8349   11.1695    7.2356 S.O2    1  LIG1        0.0943
      2 O           3.2699   11.3653    7.1413 O.2     1  LIG1       -0.1483
      3 N           1.2643   11.2162    8.7018 N.pl3   1  LIG1       -0.0576
      4 O           1.0640   12.1377    6.4997 O.2     1  LIG1       -0.1483
      5 C           1.4983    9.5838    6.5674 C.ar    1  LIG1        0.1106
      6 N           0.6253    5.8726    4.9372 N.pl3   1  LIG1       -0.3580
      7 H          -0.1749    5.5600    4.9756 H       1  LIG1        0.1423
      8 H           1.2517    5.4057    4.5771 H       1  LIG1        0.1423
      9 N           5.0556   12.3034    9.0670 N.4     1  LIG1        0.2345
     10 H           5.8426   11.8727    8.9924 H       1  LIG1        0.2018
     11 H           4.4367   11.8325    8.6137 H       1  LIG1        0.2018
     12 N           0.9100   10.2922   10.7400 N.ar    1  LIG1       -0.2170
     13 C           2.4868    8.8163    5.9988 C.ar    1  LIG1       -0.0333
     14 H           3.3640    9.1249    5.9976 H       1  LIG1        0.0638
     15 C           2.1939    7.6074    5.4361 C.ar    1  LIG1       -0.0392
     16 H           2.8722    7.1097    5.0407 H       1  LIG1        0.0636
     17 C           0.2089    9.1075    6.5719 C.ar    1  LIG1       -0.0333
     18 H          -0.4713    9.6200    6.9446 H       1  LIG1        0.0638
     19 C           1.6827   10.3043    9.6516 C.ar    1  LIG1        0.2578
     20 N           2.7507    9.5516    9.4356 N.ar    1  LIG1       -0.2170
     21 C           0.9026    7.1110    5.4476 C.ar    1  LIG1        0.0247
     22 C          -0.0809    7.8825    6.0309 C.ar    1  LIG1       -0.0392
     23 H          -0.9552    7.5658    6.0568 H       1  LIG1        0.0636
     24 C           1.2458    9.4375   11.6953 C.ar    1  LIG1        0.0436
     25 C           5.1768   13.6437    8.4785 C.3     1  LIG1        0.0076
     26 H           4.3152   14.0878    8.5032 H       1  LIG1        0.0867
     27 H           5.4517   13.5673    7.5522 H       1  LIG1        0.0867
     28 C           4.6703   12.3799   10.4930 C.3     1  LIG1        0.0076
     29 H           4.6233   11.4863   10.8667 H       1  LIG1        0.0867
     30 H           3.7939   12.7877   10.5727 H       1  LIG1        0.0867
     31 C           3.0583    8.6808   10.3991 C.ar    1  LIG1        0.0436
     32 C           0.3719    9.4308   12.9185 C.3     1  LIG1       -0.0222
     33 H           0.2925   10.3244   13.2598 H       1  LIG1        0.0293
     34 H           0.7634    8.8660   13.5893 H       1  LIG1        0.0293
     35 H          -0.4987    9.0981   12.6877 H       1  LIG1        0.0293
     36 C           4.2365    7.7872   10.1190 C.3     1  LIG1       -0.0222
     37 H           4.1249    7.3713    9.2608 H       1  LIG1        0.0293
     38 H           4.2944    7.1124   10.7976 H       1  LIG1        0.0293
     39 H           5.0415    8.3105   10.1190 H       1  LIG1        0.0293
     40 C           2.3261    8.6003   11.5414 C.ar    1  LIG1       -0.0194
     41 H           2.5507    7.9898   12.2063 H       1  LIG1        0.0653
@<TRIPOS>BOND
     1     8     6    1
     2     6     7    1
     3     6    21    1
     4    16    15    1
     5    15    21   ar
     6    15    13   ar
     7    21    22   ar
     8    14    13    1
     9    13     5   ar
    10    22    23    1
    11    22    17   ar
    12     4     1    2
    13     5    17   ar
    14     5     1    1
    15    17    18    1
    16     2     1    2
    17     1     3    1
    18    27    25    1
    19    25    26    1
    20    25     9    1
    21    11     9    1
    22     3    19    1
    23    10     9    1
    24     9    28    1
    25    37    36    1
    26    20    19   ar
    27    20    31   ar
    28    19    12   ar
    29    36    39    1
    30    36    31    1
    31    36    38    1
    32    31    40   ar
    33    28    30    1
    34    28    29    1
    35    12    24   ar
    36    40    24   ar
    37    40    41    1
    38    24    32    1
    39    35    32    1
    40    32    33    1
    41    32    34    1
