@<TRIPOS>MOLECULE
C28 H27 N O6 S
 63 67 0 0 0
SMALL
GASTEIGER

@<TRIPOS>ATOM
      1 S           3.0169    1.7361    3.9005 S.O2    1  LIG1        0.0757
      2 O           2.6126    0.9439    2.7826 O.2     1  LIG1       -0.1497
      3 O           2.0642    2.5168    4.6219 O.2     1  LIG1       -0.1497
      4 O           8.0671    3.7472    4.3523 O.3     1  LIG1       -0.3860
      5 H           8.3643    3.5508    5.1125 H       1  LIG1        0.2103
      6 O           6.5998    6.3726    5.4191 O.2     1  LIG1       -0.2913
      7 O           3.5380    6.3241    4.0568 O.2     1  LIG1       -0.2483
      8 O           2.6176    4.8860    2.6016 O.3     1  LIG1       -0.4634
      9 N           4.1491    2.8157    3.3413 N.pl3   1  LIG1       -0.1847
     10 C           4.3055    4.0759    4.0350 C.3     1  LIG1        0.1696
     11 C           5.7279    4.3923    4.4932 C.3     1  LIG1        0.0993
     12 C           6.7444    3.2563    4.2207 C.3     1  LIG1        0.0972
     13 H           6.6063    2.5408    4.9050 H       1  LIG1        0.0655
     14 C           7.5752    2.3164    2.0082 C.ar    1  LIG1       -0.0514
     15 H           8.4684    2.4990    2.2751 H       1  LIG1        0.0624
     16 C           7.3402    1.7149    0.7687 C.ar    1  LIG1       -0.0500
     17 C           6.0243    1.4741    0.3965 C.ar    1  LIG1       -0.0570
     18 H           5.8465    1.0668   -0.4432 H       1  LIG1        0.0621
     19 C           4.9627    1.8147    1.2210 C.ar    1  LIG1       -0.0384
     20 H           4.0700    1.6468    0.9429 H       1  LIG1        0.0637
     21 C           5.2110    2.4026    2.4566 C.ar    1  LIG1        0.0582
     22 C           6.5299    2.6527    2.8559 C.ar    1  LIG1        0.0048
     23 C           4.6680    4.1363    5.5188 C.3     1  LIG1       -0.0002
     24 H           4.3380    4.9093    6.0420 H       1  LIG1        0.0303
     25 H           4.7072    3.2819    6.0187 H       1  LIG1        0.0303
     26 C           8.4908    1.3592   -0.1386 C.3     1  LIG1       -0.0397
     27 H           8.8216    2.1701   -0.5783 H       1  LIG1        0.0278
     28 H           8.1859    0.7210   -0.8165 H       1  LIG1        0.0278
     29 H           9.2106    0.9560    0.3892 H       1  LIG1        0.0278
     30 C           3.8820    0.6950    5.0286 C.ar    1  LIG1        0.1088
     31 C           3.6712    0.8375    6.3949 C.ar    1  LIG1       -0.0348
     32 H           3.0347    1.4633    6.7210 H       1  LIG1        0.0637
     33 C           4.4020    0.0542    7.2769 C.ar    1  LIG1       -0.0570
     34 H           4.2650    0.1539    8.2115 H       1  LIG1        0.0621
     35 C           5.3336   -0.8757    6.8168 C.ar    1  LIG1       -0.0503
     36 C           5.5061   -1.0181    5.4395 C.ar    1  LIG1       -0.0570
     37 H           6.1263   -1.6585    5.1125 H       1  LIG1        0.0621
     38 C           4.7915   -0.2472    4.5401 C.ar    1  LIG1       -0.0348
     39 H           4.9174   -0.3566    3.6048 H       1  LIG1        0.0637
     40 C           6.1132   -1.7398    7.7821 C.3     1  LIG1       -0.0397
     41 H           5.8316   -1.5413    8.6989 H       1  LIG1        0.0278
     42 H           7.0708   -1.5533    7.6872 H       1  LIG1        0.0278
     43 H           5.9438   -2.6845    7.5853 H       1  LIG1        0.0278
     44 C           3.4569    5.2255    3.5757 C.2     1  LIG1        0.3338
     45 C           1.6516    5.9011    2.1793 C.3     1  LIG1        0.0897
     46 H           1.9653    6.3439    1.3518 H       1  LIG1        0.0694
     47 H           1.5542    6.5903    2.8841 H       1  LIG1        0.0694
     48 C           0.3583    5.2398    1.9387 C.3     1  LIG1       -0.0306
     49 H           0.4690    4.5437    1.2585 H       1  LIG1        0.0262
     50 H          -0.2941    5.9010    1.6268 H       1  LIG1        0.0262
     51 H           0.0383    4.8338    2.7724 H       1  LIG1        0.0262
     52 C           6.3182    5.7850    4.3888 C.2     1  LIG1        0.1748
     53 C           6.6163    6.4034    3.0669 C.ar    1  LIG1        0.0181
     54 C           7.3451    7.5943    3.0518 C.ar    1  LIG1       -0.0512
     55 H           7.6469    7.9714    3.8700 H       1  LIG1        0.0624
     56 C           7.6298    8.2300    1.8563 C.ar    1  LIG1       -0.0611
     57 H           8.1177    9.0446    1.8564 H       1  LIG1        0.0618
     58 C           7.2042    7.6793    0.6588 C.ar    1  LIG1       -0.0617
     59 H           7.4095    8.1099   -0.1621 H       1  LIG1        0.0618
     60 C           6.4772    6.4999    0.6612 C.ar    1  LIG1       -0.0611
     61 H           6.1749    6.1284   -0.1596 H       1  LIG1        0.0618
     62 C           6.1902    5.8589    1.8575 C.ar    1  LIG1       -0.0512
     63 H           5.7006    5.0451    1.8515 H       1  LIG1        0.0624
@<TRIPOS>BOND
     1    28    26    1
     2    27    26    1
     3    18    17    1
     4    59    58    1
     5    61    60    1
     6    26    29    1
     7    26    16    1
     8    17    16   ar
     9    17    19   ar
    10    58    60   ar
    11    58    56   ar
    12    60    62   ar
    13    16    14   ar
    14    20    19    1
    15    19    21   ar
    16    49    48    1
    17    46    45    1
    18    50    48    1
    19    63    62    1
    20    56    57    1
    21    56    54   ar
    22    62    53   ar
    23    48    45    1
    24    48    51    1
    25    14    15    1
    26    14    22   ar
    27    45     8    1
    28    45    47    1
    29    21    22   ar
    30    21     9    1
    31     8    44    1
    32     2     1    2
    33    22    12    1
    34    54    53   ar
    35    54    55    1
    36    53    52    1
    37     9     1    1
    38     9    10    1
    39    44    10    1
    40    44     7    2
    41    39    38    1
    42     1     3    2
    43     1    30    1
    44    10    11    1
    45    10    23    1
    46    12     4    1
    47    12    11    1
    48    12    13    1
    49     4     5    1
    50    52    11    1
    51    52     6    2
    52    11    23    1
    53    38    30   ar
    54    38    36   ar
    55    30    31   ar
    56    37    36    1
    57    36    35   ar
    58    23    25    1
    59    23    24    1
    60    31    32    1
    61    31    33   ar
    62    35    33   ar
    63    35    40    1
    64    33    34    1
    65    43    40    1
    66    42    40    1
    67    40    41    1
