@<TRIPOS>MOLECULE
(Z)-4-carbamoyl-1-(3-carboxy-1,1-dihydroxyprop-2-en-1-ide-2-yl) pyridin-1-ium
 28 27 0 0 0
SMALL
GASTEIGER

@<TRIPOS>ATOM
      1 O          -2.1941    4.9729    9.0170 O.3     1  LIG1       -0.4775
      2 H          -2.7637    5.7006    9.1266 H       1  LIG1        0.2954
      3 O          -3.5889    3.8917   10.3960 O.2     1  LIG1       -0.2457
      4 C          -2.6106    3.9167    9.6826 C.2     1  LIG1        0.3316
      5 C          -1.7636    2.6916    9.5036 C.2     1  LIG1        0.0511
      6 H          -2.0468    1.9226    9.9841 H       1  LIG1        0.0710
      7 C          -0.6699    2.5368    8.7630 C.2     1  LIG1        0.1335
      8 C           0.0686    1.2128    8.6143 C.2     1  LIG1        0.4010
      9 O          -0.3614    0.2665    9.3218 O.co2   1  LIG1       -0.2392
     10 O           1.0168    1.1740    7.8028 O.co2   1  LIG1       -0.2392
     11 N          -0.0882    3.6150    7.9768 N.pl3   1  LIG1       -0.2771
     12 C           0.5571    4.6209    8.6012 C.2     1  LIG1       -0.0010
     13 H           0.6540    4.6110    9.5462 H       1  LIG1        0.0784
     14 C           1.0756    5.6631    7.8641 C.2     1  LIG1       -0.0495
     15 H           1.5087    6.3872    8.3008 H       1  LIG1        0.0598
     16 C           0.9623    5.6507    6.4783 C.3     1  LIG1        0.1065
     17 C           0.3254    4.5745    5.8591 C.2     1  LIG1       -0.0495
     18 H           0.2567    4.5400    4.9123 H       1  LIG1        0.0598
     19 C          -0.2031    3.5632    6.6297 C.2     1  LIG1       -0.0010
     20 H          -0.6469    2.8316    6.2170 H       1  LIG1        0.0784
     21 C           1.5169    6.8360    5.7232 C.2     1  LIG1        0.2260
     22 O           1.8483    7.8399    6.3629 O.2     1  LIG1       -0.2747
     23 N           1.6138    6.7509    4.4015 N.am    1  LIG1       -0.3283
     24 H           1.9266    7.4309    3.9386 H       1  LIG1        0.1450
     25 H           1.3652    6.0147    3.9886 H       1  LIG1        0.1450
     26 O           3.1866    2.9346    7.1102 O.3     2  HOH2       -0.4105
     27 H           3.8329    2.3503    6.9678 H       0  HOH0        0.2052
     28 H           2.5501    2.4497    7.4737 H       0  HOH0        0.2052
@<TRIPOS>BOND
     1    24    23    1
     2    25    23    1
     3    23    21   am
     4    18    17    1
     5    21    22    2
     6    21    16    1
     7    17    16    1
     8    17    19    2
     9    20    19    1
    10    16    14    1
    11    19    11    1
    12    27    26    1
    13    26    28    1
    14    10     8   ar
    15    14    15    1
    16    14    12    2
    17    11    12    1
    18    11     7    1
    19    12    13    1
    20     8     7    1
    21     8     9   ar
    22     7     5    2
    23     1     2    1
    24     1     4    1
    25     5     4    1
    26     5     6    1
    27     4     3    2
