@<TRIPOS>MOLECULE
4-aminotetrafluoropyridine
 13 13 0 0 0
SMALL
GASTEIGER

@<TRIPOS>ATOM
      1 N           2.5903   10.1187    1.7264 N.ar    1  LIG1       -0.1858
      2 N           1.6394    6.1099    2.3392 N.pl3   1  LIG1       -0.3533
      3 C           1.9460    7.4038    2.1324 C.ar    1  LIG1        0.1049
      4 C           1.0897    8.4480    2.4963 C.ar    1  LIG1        0.2009
      5 C           1.4600    9.7452    2.2726 C.ar    1  LIG1        0.2531
      6 C           3.4080    9.1457    1.3798 C.ar    1  LIG1        0.2531
      7 C           3.1488    7.8116    1.5517 C.ar    1  LIG1        0.2009
      8 F           4.0327    6.8748    1.1767 F       1  LIG1       -0.1987
      9 F          -0.0786    8.1510    3.0865 F       1  LIG1       -0.1987
     10 F           0.6248   10.7221    2.6452 F       1  LIG1       -0.1806
     11 F           4.5554    9.5147    0.8119 F       1  LIG1       -0.1806
     12 H           2.2412    5.5004    2.1137 H       1  LIG1        0.1425
     13 H           0.8778    5.9016    2.7240 H       1  LIG1        0.1425
@<TRIPOS>BOND
     1    11     6    1
     2     8     7    1
     3     6     7   ar
     4     6     1   ar
     5     7     3   ar
     6     1     5   ar
     7    12     2    1
     8     3     2    1
     9     3     4   ar
    10     5     4   ar
    11     5    10    1
    12     2    13    1
    13     4     9    1
