@<TRIPOS>MOLECULE
4-hydroxycyanobenzene
 28 28 0 0 0
SMALL
GASTEIGER

@<TRIPOS>ATOM
      1 O           2.3175    3.1263   19.0107 O.3     1  LIG1       -0.5068
      2 H           1.7586    3.6007   18.4363 H       1  LIG1        0.2921
      3 C           3.0380    3.9456   19.8055 C.ar    1  LIG1        0.1169
      4 C           3.9823    3.3583   20.6497 C.ar    1  LIG1       -0.0190
      5 H           4.0948    2.4150   20.6499 H       1  LIG1        0.0654
      6 C           4.7519    4.1408   21.4819 C.ar    1  LIG1       -0.0409
      7 H           5.3962    3.7397   22.0531 H       1  LIG1        0.0631
      8 C           4.5807    5.5269   21.4817 C.ar    1  LIG1        0.0520
      9 C           3.6417    6.1164   20.6324 C.ar    1  LIG1       -0.0409
     10 H           3.5327    7.0604   20.6297 H       1  LIG1        0.0631
     11 C           2.8714    5.3325   19.7984 C.ar    1  LIG1       -0.0190
     12 H           2.2313    5.7336   19.2214 H       1  LIG1        0.0654
     13 C           5.3364    6.3646   22.3656 C.1     1  LIG1        0.0992
     14 N           5.9098    7.0691   23.0680 N.1     1  LIG1       -0.1909
     15 O           2.6547    6.7903   26.1780 O.3     2  LIG2       -0.5068
     16 H           2.1829    7.4539   26.5437 H       2  LIG2        0.2921
     17 C           1.9668    6.3007   25.1193 C.ar    2  LIG2        0.1169
     18 C           2.4921    5.1905   24.4625 C.ar    2  LIG2       -0.0190
     19 H           3.3054    4.8013   24.7632 H       2  LIG2        0.0654
     20 C           1.8316    4.6547   23.3745 C.ar    2  LIG2       -0.0409
     21 H           2.1857    3.8945   22.9294 H       2  LIG2        0.0631
     22 C           0.6415    5.2347   22.9322 C.ar    2  LIG2        0.0520
     23 C           0.1151    6.3368   23.6006 C.ar    2  LIG2       -0.0409
     24 H          -0.7000    6.7242   23.3043 H       2  LIG2        0.0631
     25 C           0.7687    6.8682   24.6907 C.ar    2  LIG2       -0.0190
     26 H           0.4043    7.6172   25.1482 H       2  LIG2        0.0654
     27 C          -0.0388    4.7235   21.7740 C.1     2  LIG2        0.0992
     28 N          -0.5905    4.3471   20.8454 N.1     2  LIG2       -0.1909
@<TRIPOS>BOND
     1     2     1    1
     2     1     3    1
     3    12    11    1
     4    11     3   ar
     5    11     9   ar
     6     3     4   ar
     7    10     9    1
     8     9     8   ar
     9     4     5    1
    10     4     6   ar
    11    28    27    3
    12     8     6   ar
    13     8    13    1
    14     6     7    1
    15    27    22    1
    16    13    14    3
    17    21    20    1
    18    22    20   ar
    19    22    23   ar
    20    24    23    1
    21    20    18   ar
    22    23    25   ar
    23    18    19    1
    24    18    17   ar
    25    25    17   ar
    26    25    26    1
    27    17    15    1
    28    15    16    1
