@<TRIPOS>MOLECULE
C28 H19 N O2
 50 54 0 0 0
SMALL
GASTEIGER

@<TRIPOS>ATOM
      1 O           3.4087    9.0769    7.8750 O.2     1  LIG1       -0.2865
      2 O           1.6238    5.9188   10.9218 O.2     1  LIG1       -0.2865
      3 N           4.8580    4.3139    3.3099 N.pl3   1  LIG1       -0.2692
      4 C           4.3383    4.7482    4.5438 C.ar    1  LIG1        0.0388
      5 C           4.3486    6.1071    4.8844 C.ar    1  LIG1       -0.0395
      6 H           4.7049    6.7341    4.2809 H       1  LIG1        0.0636
      7 C           3.8432    6.5379    6.0950 C.ar    1  LIG1       -0.0528
      8 H           3.8599    7.4543    6.3054 H       1  LIG1        0.0624
      9 C           3.3079    5.6305    7.0099 C.ar    1  LIG1       -0.0241
     10 C           3.2932    4.2734    6.6488 C.ar    1  LIG1       -0.0528
     11 H           2.9262    3.6473    7.2462 H       1  LIG1        0.0624
     12 C           3.7991    3.8325    5.4474 C.ar    1  LIG1       -0.0395
     13 H           3.7823    2.9169    5.2364 H       1  LIG1        0.0636
     14 C           2.7700    5.9581    8.3092 C.2     1  LIG1       -0.0400
     15 H           2.4523    5.1968    8.7604 H       1  LIG1        0.0632
     16 C           2.6089    7.0848    9.0407 C.2     1  LIG1        0.0700
     17 C           2.9005    8.5244    8.8351 C.2     1  LIG1        0.1975
     18 C           2.4157    9.2256   10.0649 C.ar    1  LIG1        0.0332
     19 C           2.4385   10.5778   10.3772 C.ar    1  LIG1       -0.0502
     20 H           2.8282   11.2018    9.7923 H       1  LIG1        0.0625
     21 C           1.8721   10.9812   11.5733 C.ar    1  LIG1       -0.0610
     22 H           1.8784   11.8930   11.8022 H       1  LIG1        0.0618
     23 C           1.2939   10.0643   12.4418 C.ar    1  LIG1       -0.0610
     24 H           0.9070   10.3662   13.2436 H       1  LIG1        0.0618
     25 C           1.2798    8.7167   12.1443 C.ar    1  LIG1       -0.0502
     26 H           0.8925    8.0937   12.7322 H       1  LIG1        0.0625
     27 C           1.8564    8.3112   10.9497 C.ar    1  LIG1        0.0332
     28 C           1.9792    6.9556   10.3828 C.2     1  LIG1        0.1975
     29 C           4.4932    3.0296    2.7936 C.ar    1  LIG1        0.0388
     30 C           3.1710    2.7238    2.5348 C.ar    1  LIG1       -0.0400
     31 H           2.5012    3.3668    2.6809 H       1  LIG1        0.0636
     32 C           2.8350    1.4678    2.0602 C.ar    1  LIG1       -0.0600
     33 H           1.9340    1.2596    1.8923 H       1  LIG1        0.0618
     34 C           3.8083    0.5204    1.8310 C.ar    1  LIG1       -0.0616
     35 H           3.5733   -0.3295    1.5062 H       1  LIG1        0.0618
     36 C           5.1215    0.8246    2.0789 C.ar    1  LIG1       -0.0600
     37 H           5.7900    0.1837    1.9167 H       1  LIG1        0.0618
     38 C           5.4646    2.0722    2.5680 C.ar    1  LIG1       -0.0400
     39 H           6.3653    2.2706    2.7483 H       1  LIG1        0.0636
     40 C           5.9676    4.9708    2.7020 C.ar    1  LIG1        0.0388
     41 C           7.0469    5.4138    3.4641 C.ar    1  LIG1       -0.0400
     42 H           7.0400    5.3099    4.3984 H       1  LIG1        0.0636
     43 C           8.1271    6.0053    2.8385 C.ar    1  LIG1       -0.0600
     44 H           8.8488    6.3179    3.3531 H       1  LIG1        0.0618
     45 C           8.1564    6.1428    1.4596 C.ar    1  LIG1       -0.0616
     46 H           8.8983    6.5369    1.0374 H       1  LIG1        0.0618
     47 C           7.0867    5.6967    0.7145 C.ar    1  LIG1       -0.0600
     48 H           7.1034    5.7820   -0.2216 H       1  LIG1        0.0618
     49 C           5.9944    5.1280    1.3290 C.ar    1  LIG1       -0.0400
     50 H           5.2622    4.8441    0.8119 H       1  LIG1        0.0636
@<TRIPOS>BOND
     1    48    47    1
     2    47    49   ar
     3    47    45   ar
     4    50    49    1
     5    46    45    1
     6    49    40   ar
     7    45    43   ar
     8    35    34    1
     9    34    32   ar
    10    34    36   ar
    11    33    32    1
    12    37    36    1
    13    32    30   ar
    14    36    38   ar
    15    30    31    1
    16    30    29   ar
    17    38    39    1
    18    38    29   ar
    19    40     3    1
    20    40    41   ar
    21    29     3    1
    22    43    44    1
    23    43    41   ar
    24     3     4    1
    25    41    42    1
    26     6     5    1
    27     4     5   ar
    28     4    12   ar
    29     5     7   ar
    30    13    12    1
    31    12    10   ar
    32     7     8    1
    33     7     9   ar
    34    10     9   ar
    35    10    11    1
    36     9    14    1
    37     1    17    2
    38    14    15    1
    39    14    16    2
    40    17    16    1
    41    17    18    1
    42    16    28    1
    43    20    19    1
    44    18    19   ar
    45    18    27   ar
    46    19    21   ar
    47    28     2    2
    48    28    27    1
    49    27    25   ar
    50    21    22    1
    51    21    23   ar
    52    25    23   ar
    53    25    26    1
    54    23    24    1
