@<TRIPOS>MOLECULE
?
 26 23 0 0 0
SMALL
GASTEIGER

@<TRIPOS>ATOM
      1 H          16.2812    1.2678    1.0650 H       1  LIG1        0.1994
      2 H          16.7216    2.5967    0.8113 H       1  LIG1        0.1994
      3 H          16.1841    2.2708    2.1108 H       1  LIG1        0.1994
      4 H          18.5081    1.2372    1.1483 H       1  LIG1        0.0813
      5 H          17.9061    0.8299    2.5222 H       1  LIG1        0.0813
      6 H          19.4782    4.2667    4.9881 H       1  LIG1        0.0377
      7 H          18.1489    3.0651    3.2707 H       1  LIG1        0.0317
      8 H          18.9176    3.3808    2.0006 H       1  LIG1        0.0317
      9 H          20.2029    3.2076    5.7712 H       1  LIG1        0.0377
     10 H          20.5630    1.7464    2.5376 H       1  LIG1        0.0267
     11 H          21.8077    2.9174    4.0358 H       1  LIG1        0.0270
     12 H          19.8899    1.5376    3.8846 H       1  LIG1        0.0267
     13 H          21.0891    3.9917    3.1951 H       1  LIG1        0.0270
     14 I          13.2789    0.6605    1.0767 I       2  LIG2        0.0000
     15 O          20.6792    5.5462    6.7556 O.3     1  LIG1       -0.4806
     16 O          22.3151    5.2213    5.2764 O.2     1  LIG1       -0.2510
     17 C          21.2107    4.9428    5.7117 C.2     1  LIG1        0.3047
     18 C          20.3307    3.8863    5.1055 C.3     1  LIG1        0.0448
     19 C          20.9198    3.2973    3.8346 C.3     1  LIG1       -0.0428
     20 C          20.0561    2.2000    3.2138 C.3     1  LIG1       -0.0478
     21 C          18.7482    2.6903    2.6037 C.3     1  LIG1       -0.0126
     22 C          18.0424    1.5432    1.9145 C.3     1  LIG1       -0.0354
     23 N          16.6850    1.9419    1.4341 N.4     1  LIG1        0.2185
     24 O          14.9414    3.4424    3.2041 O.3     3  HOH3       -0.2528
     25 H          21.1168    6.0283    6.9618 H       1  LIG1        0.2951
     26 H          15.3319    3.9357    3.6898 H       0  HOH0        0.2528
@<TRIPOS>BOND
     1     2    23    1
     2     1    23    1
     3     4    22    1
     4    23    22    1
     5    23     3    1
     6    22     5    1
     7    22    21    1
     8     8    21    1
     9    10    20    1
    10    21    20    1
    11    21     7    1
    12    13    19    1
    13    24    26    1
    14    20    19    1
    15    20    12    1
    16    19    11    1
    17    19    18    1
    18     6    18    1
    19    18    17    1
    20    18     9    1
    21    16    17    2
    22    17    15    1
    23    15    25    1
