@<TRIPOS>MOLECULE
pentafluoroaniline 18-crown-6 2:1 associate
 35 34 0 0 0
SMALL
GASTEIGER

@<TRIPOS>ATOM
      1 O           0.3022    0.1864    2.9465 O.3     1  LIG1       -0.3752
      2 O          -0.3873    4.7303    4.3919 O.3     1  LIG1       -0.3752
      3 O          -1.5320    2.1753    3.5511 O.3     1  LIG1       -0.3752
      4 C          -0.0963    1.7087    7.0052 C.ar    2  LIG2        0.1018
      5 C          -1.0155    0.6738    6.9571 C.ar    2  LIG2        0.1847
      6 C          -0.3427    2.6658    7.9740 C.ar    2  LIG2        0.1847
      7 C          -2.3442    1.6103    8.6911 C.ar    2  LIG2        0.1992
      8 C          -2.1204    0.6254    7.7730 C.ar    2  LIG2        0.1982
      9 C          -1.4438    2.6302    8.7855 C.ar    2  LIG2        0.1982
     10 C          -1.0701   -0.0041    2.7799 C.3     1  LIG1        0.0711
     11 H          -1.4596   -0.3501    3.5984 H       1  LIG1        0.0583
     12 H          -1.2330   -0.6432    2.0688 H       1  LIG1        0.0583
     13 C           1.0200   -1.0226    3.1930 C.3     1  LIG1        0.0711
     14 H           0.7820   -1.6860    2.5274 H       1  LIG1        0.0583
     15 H           0.7843   -1.3708    4.0664 H       1  LIG1        0.0583
     16 C          -1.6764    1.2879    2.4433 C.3     1  LIG1        0.0711
     17 H          -1.2406    1.6623    1.6626 H       1  LIG1        0.0583
     18 H          -2.6170    1.1666    2.2380 H       1  LIG1        0.0583
     19 C          -2.0822    3.4349    3.3330 C.3     1  LIG1        0.0711
     20 H          -3.0463    3.3630    3.2540 H       1  LIG1        0.0583
     21 H          -1.7369    3.8047    2.5060 H       1  LIG1        0.0583
     22 C          -1.7398    4.3266    4.4580 C.3     1  LIG1        0.0711
     23 H          -2.3121    5.1100    4.4340 H       1  LIG1        0.0583
     24 H          -1.8982    3.8647    5.2954 H       1  LIG1        0.0583
     25 C          -0.0224    5.5733    5.4508 C.3     1  LIG1        0.0711
     26 H          -0.2466    5.1549    6.2959 H       1  LIG1        0.0583
     27 H          -0.5110    6.4093    5.3873 H       1  LIG1        0.0583
     28 F          -0.8146   -0.3261    6.0812 F       2  LIG2       -0.2003
     29 F           0.5401    3.6676    8.1327 F       2  LIG2       -0.2003
     30 F          -1.6186    3.6049    9.6950 F       2  LIG2       -0.1993
     31 F          -2.9753   -0.3989    7.6802 F       2  LIG2       -0.1993
     32 N           1.0272    1.7451    6.2237 N.pl3   2  LIG2       -0.3534
     33 H           1.4385    2.5234    6.0889 H       2  LIG2        0.1425
     34 H           1.0981    1.1942    5.6080 H       2  LIG2        0.1425
     35 F          -3.4354    1.5880    9.4691 F       2  LIG2       -0.1993
@<TRIPOS>BOND
     1    17    16    1
     2    12    10    1
     3    18    16    1
     4    16    10    1
     5    16     3    1
     6    21    19    1
     7    14    13    1
     8    10     1    1
     9    10    11    1
    10     1    13    1
    11    13    15    1
    12    20    19    1
    13    19     3    1
    14    19    22    1
    15     2    22    1
    16     2    25    1
    17    23    22    1
    18    22    24    1
    19    27    25    1
    20    25    26    1
    21    34    32    1
    22    28     5    1
    23    33    32    1
    24    32     4    1
    25     5     4   ar
    26     5     8   ar
    27     4     6   ar
    28    31     8    1
    29     8     7   ar
    30     6    29    1
    31     6     9   ar
    32     7     9   ar
    33     7    35    1
    34     9    30    1
