@<TRIPOS>MOLECULE
7229205.cif
 13 11 0 0 0
SMALL
GASTEIGER

@<TRIPOS>ATOM
      1 O           6.8002    2.5157    1.2140 O.co2   1  LIG1       -0.2467
      2 O           4.9228    3.0070    0.1593 O.co2   1  LIG1       -0.2467
      3 O           2.9152    2.4864   -1.2650 O.3     1  LIG1       -0.3476
      4 H           3.6878    2.6616   -0.7348 H       1  LIG1        0.2692
      5 N           1.8215    2.9568   -0.4869 N.4     1  LIG1        0.3836
      6 H           1.8254    2.5884    0.3061 H       1  LIG1        0.2316
      7 H           1.8967    3.8778   -0.3905 H       1  LIG1        0.2316
      8 H           1.0796    2.7107   -0.9457 H       1  LIG1        0.2316
      9 C           5.4440    0.6938    0.4452 C.3     1  LIG1        0.0375
     10 H           6.0914    0.1352    0.8640 H       1  LIG1        0.0343
     11 H           5.4071    0.4910   -0.4490 H       1  LIG1        0.0343
     12 H           4.5987    0.4996    0.8028 H       1  LIG1        0.0343
     13 C           5.7594    2.1580    0.6292 C.2     1  LIG1        0.3530
@<TRIPOS>BOND
     1     3     4    1
     2     3     5    1
     3     8     5    1
     4     5     7    1
     5     5     6    1
     6    11     9    1
     7     2    13   ar
     8     9    13    1
     9     9    12    1
    10     9    10    1
    11    13     1   ar
