@<TRIPOS>MOLECULE
?
 35 37 0 0 0
SMALL
GASTEIGER

@<TRIPOS>ATOM
      1 O           0.2131   -1.4091    4.1099 O.2     1  LIG1       -0.2853
      2 O           4.5779   -1.9154    7.2009 O.2     1  LIG1       -0.2872
      3 N           0.9677    0.6981    5.5601 N.pl3   1  LIG1       -0.3404
      4 H           0.2823    0.7086    5.0084 H       1  LIG1        0.1462
      5 N          -0.5422    5.1897    6.4958 N.ar    1  LIG1       -0.2598
      6 C           1.1973   -1.5587    4.8218 C.2     1  LIG1        0.2075
      7 C           1.6981   -0.4216    5.6636 C.2     1  LIG1        0.0787
      8 C           2.8238   -0.5549    6.4383 C.2     1  LIG1        0.0103
      9 H           3.1209    0.1892    6.9504 H       1  LIG1        0.0676
     10 C           3.5659   -1.7832    6.4971 C.2     1  LIG1        0.1886
     11 C           3.7970   -4.1424    5.6971 C.ar    1  LIG1       -0.0502
     12 H           4.5743   -4.2187    6.2379 H       1  LIG1        0.0625
     13 C           3.3777   -5.2218    4.9321 C.ar    1  LIG1       -0.0610
     14 H           3.8676   -6.0352    4.9512 H       1  LIG1        0.0618
     15 C           2.2372   -5.1137    4.1352 C.ar    1  LIG1       -0.0610
     16 H           1.9571   -5.8521    3.6056 H       1  LIG1        0.0618
     17 C           1.5142   -3.9328    4.1154 C.ar    1  LIG1       -0.0502
     18 H           0.7322   -3.8643    3.5802 H       1  LIG1        0.0625
     19 C           1.9339   -2.8426    4.8811 C.ar    1  LIG1        0.0343
     20 C           3.0860   -2.9486    5.6763 C.ar    1  LIG1        0.0326
     21 C           1.2671    1.9003    6.3285 C.3     1  LIG1        0.0146
     22 H           2.1451    2.2640    6.0510 H       1  LIG1        0.0465
     23 H           1.3150    1.6785    7.2915 H       1  LIG1        0.0465
     24 C           0.1888    2.9383    6.0967 C.3     1  LIG1        0.0051
     25 H           0.1057    3.0867    5.1213 H       1  LIG1        0.0343
     26 H          -0.6726    2.5672    6.4144 H       1  LIG1        0.0343
     27 C           0.4053    4.2739    6.7648 C.ar    1  LIG1        0.0428
     28 C           1.4925    4.5468    7.5929 C.ar    1  LIG1       -0.0403
     29 H           2.1484    3.8824    7.7631 H       1  LIG1        0.0635
     30 C           1.6020    5.8055    8.1655 C.ar    1  LIG1       -0.0586
     31 H           2.3336    6.0142    8.7349 H       1  LIG1        0.0619
     32 C           0.6322    6.7528    7.8975 C.ar    1  LIG1       -0.0436
     33 H           0.6812    7.6236    8.2753 H       1  LIG1        0.0633
     34 C          -0.4142    6.3982    7.0609 C.ar    1  LIG1        0.0279
     35 H          -1.0797    7.0501    6.8772 H       1  LIG1        0.0829
@<TRIPOS>BOND
     1    18    17    1
     2    16    15    1
     3     1     6    2
     4    17    15   ar
     5    17    19   ar
     6    15    13   ar
     7     6    19    1
     8     6     7    1
     9    19    20   ar
    10    13    14    1
    11    13    11   ar
    12     4     3    1
    13    25    24    1
    14     3     7    1
    15     3    21    1
    16     7     8    2
    17    20    11   ar
    18    20    10    1
    19    11    12    1
    20    22    21    1
    21    24    21    1
    22    24    26    1
    23    24    27    1
    24    21    23    1
    25     8    10    1
    26     8     9    1
    27     5    27   ar
    28     5    34   ar
    29    10     2    2
    30    27    28   ar
    31    35    34    1
    32    34    32   ar
    33    28    29    1
    34    28    30   ar
    35    32    30   ar
    36    32    33    1
    37    30    31    1
