@<TRIPOS>MOLECULE
?
 14 12 0 0 0
SMALL
GASTEIGER

@<TRIPOS>ATOM
      1 CL          4.1055    4.7973    0.5601 Cl      1  LIG1        0.0000
      2 O           2.8745    4.7973    4.2862 O.2     2  LIG2       -0.2507
      3 O           1.6474    4.7973    2.4192 O.3     2  LIG2       -0.4804
      4 N          -0.4809    4.7973    8.1537 N.3     2  LIG2       -0.3257
      5 C           1.7935    4.7973    3.7477 C.2     2  LIG2        0.3090
      6 C          -0.7054    4.7973    6.6864 C.3     2  LIG2        0.0244
      7 C           0.6191    4.7973    5.9622 C.3     2  LIG2       -0.0056
      8 C           0.4744    4.7973    4.4613 C.3     2  LIG2        0.0740
      9 H           2.3999    4.7973    2.0180 H       2  LIG2        0.2951
     10 H          -1.2083    5.5905    6.4754 H       2  LIG2        0.0477
     11 H           1.1250    5.5649    6.2399 H       2  LIG2        0.0328
     12 H          -0.0283    5.5329    4.1529 H       2  LIG2        0.0425
     13 H          -1.2257    4.7973    8.6032 H       2  LIG2        0.1185
     14 H          -0.0218    5.5009    8.4084 H       2  LIG2        0.1185
@<TRIPOS>BOND
     1     9     3    1
     2     3     5    1
     3     5     2    2
     4     5     8    1
     5    12     8    1
     6     8     7    1
     7     7    11    1
     8     7     6    1
     9    10     6    1
    10     6     4    1
    11     4    14    1
    12     4    13    1
