@<TRIPOS>MOLECULE
1-(2,2,3-trimethyl-1,3-oxazolidin-5-yl)butane-1,2,3,4-tetrol
 37 37 0 0 0
SMALL
GASTEIGER

@<TRIPOS>ATOM
      1 O           6.4313    5.2731    4.4331 O.3     1  LIG1       -0.3865
      2 O           2.5661    1.7867    4.3395 O.3     1  LIG1       -0.3924
      3 O           2.9849    4.5870    4.2566 O.3     1  LIG1       -0.3869
      4 O           6.0033    2.5022    4.3442 O.3     1  LIG1       -0.3865
      5 O           7.2177    5.3967    7.1548 O.3     1  LIG1       -0.3524
      6 C           3.2517    2.4573    3.2910 C.3     1  LIG1        0.0727
      7 H           2.6137    2.7125    2.6064 H       1  LIG1        0.0584
      8 H           3.8915    1.8485    2.8888 H       1  LIG1        0.0584
      9 C           6.5614    4.2297    6.6373 C.3     1  LIG1        0.1019
     10 C           5.6920    4.5920    5.4479 C.3     1  LIG1        0.1108
     11 H           4.9960    5.2038    5.7667 H       1  LIG1        0.0646
     12 C           5.7768    3.6772    7.8201 C.3     1  LIG1        0.0300
     13 H           4.8616    3.9992    7.8192 H       1  LIG1        0.0454
     14 H           5.7744    2.7070    7.8211 H       1  LIG1        0.0454
     15 C           3.9807    3.6937    3.7755 C.3     1  LIG1        0.1065
     16 H           4.4483    4.1087    3.0209 H       1  LIG1        0.0643
     17 C           4.9947    3.3619    4.8783 C.3     1  LIG1        0.1114
     18 H           4.5320    2.8943    5.6056 H       1  LIG1        0.0647
     19 C           6.9228    5.5520    8.5454 C.3     1  LIG1        0.1178
     20 C           5.8428    4.0726   10.2222 C.3     1  LIG1       -0.0101
     21 H           4.9789    4.4887   10.1723 H       1  LIG1        0.0391
     22 H           6.3648    4.5018   10.9035 H       1  LIG1        0.0391
     23 H           5.7384    3.1429   10.4365 H       1  LIG1        0.0391
     24 C           8.1994    5.9484    9.2473 C.3     1  LIG1       -0.0222
     25 H           8.8777    5.2914    9.0736 H       1  LIG1        0.0271
     26 H           8.0413    6.0021   10.1922 H       1  LIG1        0.0271
     27 H           8.4906    6.8037    8.9215 H       1  LIG1        0.0271
     28 C           5.8495    6.6197    8.6681 C.3     1  LIG1       -0.0222
     29 H           6.1505    7.4257    8.2428 H       1  LIG1        0.0271
     30 H           5.6749    6.7927    9.5967 H       1  LIG1        0.0271
     31 H           5.0448    6.3142    8.2428 H       1  LIG1        0.0271
     32 N           6.5180    4.2019    8.9409 N.3     1  LIG1       -0.2759
     33 H           1.8377    2.0916    4.4780 H       1  LIG1        0.2095
     34 H           3.2847    5.2782    4.3657 H       1  LIG1        0.2100
     35 H           5.7817    1.7412    4.3820 H       1  LIG1        0.2100
     36 H           7.1249    4.8840    4.3169 H       1  LIG1        0.2100
     37 H           7.2531    3.6247    6.3712 H       1  LIG1        0.0636
@<TRIPOS>BOND
     1     7     6    1
     2     8     6    1
     3    16    15    1
     4     6    15    1
     5     6     2    1
     6    15     3    1
     7    15    17    1
     8     3    34    1
     9    36     1    1
    10     2    33    1
    11     4    35    1
    12     4    17    1
    13     1    10    1
    14    17    10    1
    15    17    18    1
    16    10    11    1
    17    10     9    1
    18    37     9    1
    19     9     5    1
    20     9    12    1
    21     5    19    1
    22    13    12    1
    23    12    14    1
    24    12    32    1
    25    31    28    1
    26    29    28    1
    27    19    28    1
    28    19    32    1
    29    19    24    1
    30    28    30    1
    31    27    24    1
    32    32    20    1
    33    25    24    1
    34    24    26    1
    35    21    20    1
    36    20    23    1
    37    20    22    1
