@<TRIPOS>MOLECULE
?
 82 84 0 0 0
SMALL
GASTEIGER

@<TRIPOS>ATOM
      1 B           1.6669    5.7377    2.4809 B       1  LIG1        0.0000
      2 O           3.5624    8.7678    2.3211 O.2     1  LIG1        0.0000
      3 O           2.7779    6.7196    2.5767 O.3     1  LIG1        0.0000
      4 O           0.8534    5.9264    1.2961 O.3     1  LIG1        0.0000
      5 O           0.1815    5.4924    5.7509 O.2     1  LIG1        0.0000
      6 O           0.8065    5.9399    3.6804 O.3     1  LIG1        0.0000
      7 O           2.2245    4.4059    2.4093 O.3     1  LIG1        0.0000
      8 C           2.7305    7.9300    2.0395 C.2     1  LIG1        0.0000
      9 C           1.6320    8.1781    1.0760 C.ar    1  LIG1        0.0000
     10 C           0.7624    7.1426    0.7356 C.ar    1  LIG1        0.0000
     11 C          -0.2379    7.3679   -0.2187 C.ar    1  LIG1        0.0000
     12 H          -0.8244    6.6629   -0.4684 H       1  LIG1        0.0000
     13 C          -0.3693    8.6131   -0.7945 C.ar    1  LIG1        0.0000
     14 H          -1.0533    8.7600   -1.4382 H       1  LIG1        0.0000
     15 C           0.4838    9.6624   -0.4480 C.ar    1  LIG1        0.0000
     16 H           0.3770   10.5200   -0.8428 H       1  LIG1        0.0000
     17 C           1.4901    9.4351    0.4795 C.ar    1  LIG1        0.0000
     18 H           2.0861   10.1374    0.7112 H       1  LIG1        0.0000
     19 C           0.8533    5.2000    4.7792 C.2     1  LIG1        0.0000
     20 C           1.7285    4.0049    4.7229 C.ar    1  LIG1        0.0000
     21 C           2.3739    3.6730    3.5238 C.ar    1  LIG1        0.0000
     22 C           3.1767    2.5286    3.4627 C.ar    1  LIG1        0.0000
     23 H           3.6136    2.2984    2.6508 H       1  LIG1        0.0000
     24 C           3.3343    1.7305    4.5825 C.ar    1  LIG1        0.0000
     25 H           3.8858    0.9586    4.5370 H       1  LIG1        0.0000
     26 C           2.6917    2.0506    5.7758 C.ar    1  LIG1        0.0000
     27 H           2.7966    1.4956    6.5401 H       1  LIG1        0.0000
     28 C           1.8984    3.1812    5.8408 C.ar    1  LIG1        0.0000
     29 H           1.4631    3.4020    6.6558 H       1  LIG1        0.0000
     30 N           7.4818    9.4491    3.7722 N.4     2  LIG2        1.0000
     31 C           6.9036    9.3144    5.1713 C.3     2  LIG2        0.0000
     32 H           6.0586    8.8002    5.1132 H       2  LIG2        0.0000
     33 H           6.6787   10.2193    5.5068 H       2  LIG2        0.0000
     34 C           7.8106    8.6365    6.1857 C.3     2  LIG2        0.0000
     35 H           8.6327    9.1735    6.3088 H       2  LIG2        0.0000
     36 H           8.0725    7.7423    5.8528 H       2  LIG2        0.0000
     37 C           7.0871    8.4948    7.5165 C.3     2  LIG2        0.0000
     38 H           6.2552    7.9746    7.3863 H       2  LIG2        0.0000
     39 H           6.8378    9.3923    7.8536 H       2  LIG2        0.0000
     40 C           7.9708    7.7920    8.5476 C.3     2  LIG2        0.0000
     41 H           8.2630    6.9261    8.1916 H       2  LIG2        0.0000
     42 H           7.4607    7.6510    9.3724 H       2  LIG2        0.0000
     43 H           8.7543    8.3478    8.7395 H       2  LIG2        0.0000
     44 C           6.4458   10.2084    2.9470 C.3     2  LIG2        0.0000
     45 H           5.6312    9.6501    2.8788 H       2  LIG2        0.0000
     46 H           6.2000   11.0329    3.4379 H       2  LIG2        0.0000
     47 C           6.8788   10.5999    1.5384 C.3     2  LIG2        0.0000
     48 H           7.4264    9.8729    1.1467 H       2  LIG2        0.0000
     49 H           7.4377   11.4168    1.5789 H       2  LIG2        0.0000
     50 C           5.6545   10.8589    0.6455 C.3     2  LIG2        0.0000
     51 H           5.9673   11.0423   -0.2756 H       2  LIG2        0.0000
     52 H           5.1040   10.0367    0.6159 H       2  LIG2        0.0000
     53 C           4.7812   12.0128    1.1014 C.3     2  LIG2        0.0000
     54 H           4.0176   12.1042    0.4934 H       2  LIG2        0.0000
     55 H           5.3043   12.8412    1.0946 H       2  LIG2        0.0000
     56 H           4.4565   11.8384    2.0088 H       2  LIG2        0.0000
     57 C           7.7520    8.0738    3.1773 C.3     2  LIG2        0.0000
     58 H           7.9904    8.1881    2.2231 H       2  LIG2        0.0000
     59 H           8.5398    7.6859    3.6342 H       2  LIG2        0.0000
     60 C           6.6079    7.0787    3.2688 C.3     2  LIG2        0.0000
     61 H           5.7700    7.5034    2.9559 H       2  LIG2        0.0000
     62 H           6.4805    6.8026    4.2104 H       2  LIG2        0.0000
     63 C           6.9145    5.8546    2.4109 C.3     2  LIG2        0.0000
     64 H           6.9771    6.1300    1.4621 H       2  LIG2        0.0000
     65 H           7.7920    5.4815    2.6780 H       2  LIG2        0.0000
     66 C           5.8489    4.7775    2.5498 C.3     2  LIG2        0.0000
     67 H           4.9727    5.1526    2.3207 H       2  LIG2        0.0000
     68 H           5.8323    4.4518    3.4742 H       2  LIG2        0.0000
     69 H           6.0539    4.0343    1.9453 H       2  LIG2        0.0000
     70 C           8.8115   10.1771    3.7893 C.3     2  LIG2        0.0000
     71 H           9.1585   10.2193    2.8629 H       2  LIG2        0.0000
     72 H           9.4540    9.6460    4.3238 H       2  LIG2        0.0000
     73 C           8.7654   11.5927    4.3544 C.3     2  LIG2        0.0000
     74 H           8.2007   11.6061    5.1677 H       2  LIG2        0.0000
     75 H           8.3593   12.2022    3.6886 H       2  LIG2        0.0000
     76 C          10.1769   12.0824    4.7041 C.3     2  LIG2        0.0000
     77 H          10.1124   12.9916    5.0917 H       2  LIG2        0.0000
     78 H          10.5589   11.4866    5.3968 H       2  LIG2        0.0000
     79 C          11.1226   12.1221    3.5207 C.3     2  LIG2        0.0000
     80 H          10.7616   12.7218    2.8356 H       2  LIG2        0.0000
     81 H          11.2175   11.2208    3.1487 H       2  LIG2        0.0000
     82 H          11.9984   12.4492    3.8134 H       2  LIG2        0.0000
@<TRIPOS>BOND
     1    14    13    1
     2    16    15    1
     3    13    15   ar
     4    13    11   ar
     5    12    11    1
     6    15    17   ar
     7    51    50    1
     8    11    10   ar
     9    17    18    1
    10    17     9   ar
    11    54    53    1
    12    52    50    1
    13    50    53    1
    14    50    47    1
    15    10     9   ar
    16    10     4    1
    17     9     8    1
    18    55    53    1
    19    53    56    1
    20    48    47    1
    21     4     1    1
    22    64    63    1
    23    47    49    1
    24    47    44    1
    25    69    66    1
    26     8     2    2
    27     8     3    1
    28    58    57    1
    29    67    66    1
    30     7     1    1
    31     7    21    1
    32    63    66    1
    33    63    65    1
    34    63    60    1
    35     1     3    1
    36     1     6    1
    37    66    68    1
    38    23    22    1
    39    80    79    1
    40    71    70    1
    41    45    44    1
    42    44    46    1
    43    44    30    1
    44    61    60    1
    45    81    79    1
    46    57    60    1
    47    57    59    1
    48    57    30    1
    49    60    62    1
    50    22    21   ar
    51    22    24   ar
    52    79    82    1
    53    79    76    1
    54    21    20   ar
    55     6    19    1
    56    75    73    1
    57    30    70    1
    58    30    31    1
    59    70    72    1
    60    70    73    1
    61    73    76    1
    62    73    74    1
    63    25    24    1
    64    24    26   ar
    65    76    77    1
    66    76    78    1
    67    20    19    1
    68    20    28   ar
    69    19     5    2
    70    32    31    1
    71    31    33    1
    72    31    34    1
    73    26    28   ar
    74    26    27    1
    75    28    29    1
    76    36    34    1
    77    34    35    1
    78    34    37    1
    79    38    37    1
    80    37    39    1
    81    37    40    1
    82    41    40    1
    83    40    43    1
    84    40    42    1
