@<TRIPOS>MOLECULE
3b
 64 68 0 0 0
SMALL
GASTEIGER

@<TRIPOS>ATOM
      1 CL          3.6412    7.3479    0.6828 Cl      1  LIG1       -0.0835
      2 O           2.5349    5.6444    7.0132 O.3     1  LIG1       -0.4202
      3 O           4.3701    4.4196    6.6460 O.2     1  LIG1       -0.2445
      4 N           0.8525    3.6361    7.8911 N.ar    1  LIG1       -0.2288
      5 N          -0.7919    2.0971    7.4618 N.pl3   1  LIG1       -0.3431
      6 H          -0.6969    2.2463    6.6204 H       1  LIG1        0.1437
      7 H          -1.3727    1.5247    7.7343 H       1  LIG1        0.1437
      8 C           3.3865    5.5966   10.5889 C.ar    1  LIG1       -0.0576
      9 H           3.9779    6.0176   11.1706 H       1  LIG1        0.0619
     10 C           3.3996    5.9110    9.2207 C.ar    1  LIG1       -0.0171
     11 H           3.9821    6.5604    8.8986 H       1  LIG1        0.0655
     12 C           2.5605    5.2652    8.3660 C.ar    1  LIG1        0.1578
     13 C           1.6507    4.2750    8.7975 C.ar    1  LIG1        0.1153
     14 C           1.6159    4.0091   10.1916 C.ar    1  LIG1        0.0041
     15 C           2.5024    4.6699   11.0626 C.ar    1  LIG1       -0.0523
     16 H           2.4859    4.4726   11.9720 H       1  LIG1        0.0624
     17 C          -0.0304    2.7619    8.3549 C.ar    1  LIG1        0.1170
     18 C          -0.1880    2.4881    9.7508 C.ar    1  LIG1       -0.0215
     19 H          -0.8490    1.9023   10.0441 H       1  LIG1        0.0652
     20 C           0.6281    3.0859   10.6326 C.ar    1  LIG1       -0.0492
     21 H           0.5470    2.8944   11.5398 H       1  LIG1        0.0625
     22 C           3.5462    5.1931    6.2461 C.2     1  LIG1        0.3445
     23 C           3.5318    5.7633    4.8810 C.ar    1  LIG1        0.0595
     24 C           2.5800    6.6797    4.4605 C.ar    1  LIG1       -0.0464
     25 H           1.9167    6.9636    5.0466 H       1  LIG1        0.0626
     26 C           2.6197    7.1705    3.1662 C.ar    1  LIG1       -0.0426
     27 H           1.9819    7.7815    2.8768 H       1  LIG1        0.0632
     28 C           3.6100    6.7455    2.3150 C.ar    1  LIG1        0.0410
     29 C           4.5706    5.8445    2.7153 C.ar    1  LIG1       -0.0426
     30 H           5.2379    5.5710    2.1283 H       1  LIG1        0.0632
     31 C           4.5262    5.3563    4.0015 C.ar    1  LIG1       -0.0464
     32 H           5.1692    4.7472    4.2843 H       1  LIG1        0.0626
     33 CL         -2.6939    4.9930   11.0701 Cl      2  LIG2       -0.0835
     34 O          -2.1588    6.6454    4.6596 O.3     2  LIG2       -0.4202
     35 O          -0.3974    7.8063    5.4433 O.2     2  LIG2       -0.2445
     36 N          -0.1894    4.8869    4.1063 N.ar    2  LIG2       -0.2288
     37 N           1.2006    3.2453    4.8682 N.pl3   2  LIG2       -0.3431
     38 H           1.1974    3.7149    5.5897 H       2  LIG2        0.1437
     39 H           2.0026    2.9781    4.7051 H       2  LIG2        0.1437
     40 C          -1.5133    7.4854    1.1331 C.ar    2  LIG2       -0.0576
     41 H          -1.8111    8.0838    0.4864 H       2  LIG2        0.0619
     42 C          -2.0544    7.5255    2.4226 C.ar    2  LIG2       -0.0171
     43 H          -2.7213    8.1396    2.6298 H       2  LIG2        0.0655
     44 C          -1.6008    6.6593    3.3761 C.ar    2  LIG2        0.1578
     45 C          -0.6037    5.7057    3.0966 C.ar    2  LIG2        0.1153
     46 C          -0.0844    5.6566    1.7862 C.ar    2  LIG2        0.0041
     47 C          -0.5536    6.5747    0.8245 C.ar    2  LIG2       -0.0523
     48 H          -0.2002    6.5559   -0.0353 H       2  LIG2        0.0624
     49 C           0.7612    4.0079    3.8383 C.ar    2  LIG2        0.1170
     50 C           1.2969    3.8378    2.5259 C.ar    2  LIG2       -0.0215
     51 H           1.9260    3.1733    2.3576 H       2  LIG2        0.0652
     52 C           0.8816    4.6492    1.5341 C.ar    2  LIG2       -0.0492
     53 H           1.2314    4.5480    0.6779 H       2  LIG2        0.0625
     54 C          -1.3370    7.0918    5.6566 C.2     2  LIG2        0.3445
     55 C          -1.7354    6.5834    6.9845 C.ar    2  LIG2        0.0595
     56 C          -2.9203    5.8969    7.2080 C.ar    2  LIG2       -0.0464
     57 H          -3.5217    5.7726    6.5095 H       2  LIG2        0.0626
     58 C          -3.2109    5.3988    8.4579 C.ar    2  LIG2       -0.0426
     59 H          -4.0058    4.9396    8.6076 H       2  LIG2        0.0632
     60 C          -2.3116    5.5867    9.4846 C.ar    2  LIG2        0.0410
     61 C          -1.1275    6.2652    9.2920 C.ar    2  LIG2       -0.0426
     62 H          -0.5280    6.3838    9.9937 H       2  LIG2        0.0632
     63 C          -0.8508    6.7633    8.0358 C.ar    2  LIG2       -0.0464
     64 H          -0.0572    7.2272    7.8918 H       2  LIG2        0.0626
@<TRIPOS>BOND
     1    48    47    1
     2    41    40    1
     3    53    52    1
     4     1    28    1
     5    47    40   ar
     6    47    46   ar
     7    40    42   ar
     8    52    46   ar
     9    52    50   ar
    10    46    45   ar
    11    30    29    1
    12    28    29   ar
    13    28    26   ar
    14    51    50    1
    15    42    43    1
    16    42    44   ar
    17    50    49   ar
    18    29    31   ar
    19    27    26    1
    20    45    44   ar
    21    45    36   ar
    22    26    24   ar
    23    44    34    1
    24    49    36   ar
    25    49    37    1
    26    31    32    1
    27    31    23   ar
    28    24    23   ar
    29    24    25    1
    30    34    54    1
    31    39    37    1
    32    37    38    1
    33    23    22    1
    34    35    54    2
    35    54    55    1
    36    22     3    2
    37    22     2    1
    38    57    56    1
    39     6     5    1
    40    55    56   ar
    41    55    63   ar
    42     2    12    1
    43    56    58   ar
    44     5     7    1
    45     5    17    1
    46     4    17   ar
    47     4    13   ar
    48    64    63    1
    49    63    61   ar
    50    17    18   ar
    51    12    13   ar
    52    12    10   ar
    53    58    59    1
    54    58    60   ar
    55    13    14   ar
    56    11    10    1
    57    10     8   ar
    58    61    60   ar
    59    61    62    1
    60    60    33    1
    61    18    19    1
    62    18    20   ar
    63    14    20   ar
    64    14    15   ar
    65     8    15   ar
    66     8     9    1
    67    20    21    1
    68    15    16    1
