@<TRIPOS>MOLECULE
C31 H27 N3 O6 S2
 69 72 0 0 0
SMALL
GASTEIGER

@<TRIPOS>ATOM
      1 S           5.9497    3.4401    9.9902 S.O2    1  LIG1        0.0724
      2 S           4.8396   10.7814    8.2537 S.O2    1  LIG1        0.0724
      3 O           4.9811   11.7975    7.2546 O.2     1  LIG1       -0.1500
      4 O           6.5382    2.1993    9.5852 O.2     1  LIG1       -0.1500
      5 O           1.7922    5.3447    4.1126 O.2     1  LIG1       -0.2866
      6 O           5.2587    6.8127    7.9549 O.2     1  LIG1       -0.2865
      7 O           6.6776    4.3242   10.8458 O.2     1  LIG1       -0.1500
      8 O           5.8499   10.6200    9.2529 O.2     1  LIG1       -0.1500
      9 N           5.6301    4.3613    8.6686 N.pl3   1  LIG1       -0.2155
     10 H           6.0185    5.1505    8.6333 H       1  LIG1        0.1737
     11 N           4.9412    7.4885   11.1872 N.1     2  LIG2       -0.1966
     12 N           4.7614    9.3069    7.5419 N.pl3   1  LIG1       -0.2155
     13 H           5.3036    8.6962    7.8689 H       1  LIG1        0.1737
     14 C           6.0301    7.5955   10.8690 C.1     2  LIG2        0.0622
     15 C           3.7823    2.3377    6.1803 C.ar    1  LIG1       -0.0593
     16 H           3.6597    1.4226    5.9554 H       1  LIG1        0.0618
     17 C           2.6852    1.5208   11.3483 C.ar    1  LIG1       -0.0570
     18 H           2.3687    0.6261   11.4020 H       1  LIG1        0.0621
     19 C           3.9214    1.7747   10.7654 C.ar    1  LIG1       -0.0348
     20 H           4.4437    1.0647   10.4126 H       1  LIG1        0.0637
     21 C           2.5339    9.3927    4.5902 C.ar    1  LIG1       -0.0593
     22 H           2.1307   10.0345    4.0175 H       1  LIG1        0.0618
     23 C           2.3828    3.8664   11.7804 C.ar    1  LIG1       -0.0570
     24 H           1.8543    4.5787   12.1216 H       1  LIG1        0.0621
     25 C           4.4484    6.4776    7.0687 C.2     1  LIG1        0.1981
     26 C           3.3267    9.8142    5.6409 C.ar    1  LIG1       -0.0386
     27 H           3.4499   10.7437    5.7918 H       1  LIG1        0.0637
     28 C           3.2970   11.0229    9.0666 C.ar    1  LIG1        0.1085
     29 C           4.3818    3.0843   10.7066 C.ar    1  LIG1        0.1085
     30 C           2.6287    5.6690    4.9443 C.2     1  LIG1        0.1946
     31 C           0.9318   11.4639   10.4650 C.ar    1  LIG1       -0.0503
     32 C           2.9246    7.1128    5.1859 C.ar    1  LIG1        0.0349
     33 C           3.6166    4.1470   11.2141 C.ar    1  LIG1       -0.0348
     34 H           3.9383    5.0407   11.1706 H       1  LIG1        0.0637
     35 C           3.3538    4.6563    5.7419 C.ar    1  LIG1        0.0349
     36 C           4.5821    2.6762    7.2528 C.ar    1  LIG1       -0.0386
     37 H           4.9911    1.9907    7.7692 H       1  LIG1        0.0637
     38 C           2.3215    8.0427    4.3639 C.ar    1  LIG1       -0.0501
     39 H           1.7652    7.7589    3.6494 H       1  LIG1        0.0625
     40 C           2.9712   10.1987   10.1404 C.ar    1  LIG1       -0.0348
     41 H           3.5431    9.4833   10.3922 H       1  LIG1        0.0637
     42 C           1.9034    2.5586   11.8570 C.ar    1  LIG1       -0.0503
     43 C           3.7696    7.4985    6.2519 C.ar    1  LIG1        0.0554
     44 C           4.7979    4.0151    7.5877 C.ar    1  LIG1        0.0595
     45 C           2.4428   12.0539    8.6678 C.ar    1  LIG1       -0.0348
     46 H           2.6643   12.6018    7.9239 H       1  LIG1        0.0637
     47 C           1.2666   12.2702    9.3734 C.ar    1  LIG1       -0.0570
     48 H           0.6831   12.9729    9.1114 H       1  LIG1        0.0621
     49 C           1.7987   10.4409   10.8306 C.ar    1  LIG1       -0.0570
     50 H           1.5792    9.8930   11.5758 H       1  LIG1        0.0621
     51 C           3.9481    8.8911    6.4846 C.ar    1  LIG1        0.0595
     52 C           8.4255    7.2474   11.4749 C.3     2  LIG2       -0.0524
     53 H           9.3340    7.3423   11.1195 H       2  LIG2        0.0239
     54 H           8.3288    7.7988   12.2789 H       2  LIG2        0.0239
     55 H           8.2588    6.3082   11.6998 H       2  LIG2        0.0239
     56 C           4.2024    5.0359    6.8156 C.ar    1  LIG1        0.0554
     57 C           0.5596    2.2794   12.4808 C.3     1  LIG1       -0.0397
     58 H           0.1571    3.1215   12.7799 H       1  LIG1        0.0278
     59 H          -0.0258    1.8536   11.8213 H       1  LIG1        0.0278
     60 H           0.6738    1.6823   13.2491 H       1  LIG1        0.0278
     61 C           3.1549    3.3215    5.4262 C.ar    1  LIG1       -0.0501
     62 H           2.5941    3.0823    4.6988 H       1  LIG1        0.0625
     63 C           7.4210    7.7033   10.4241 C.3     2  LIG2        0.0320
     64 H           7.6105    8.6446   10.1864 H       2  LIG2        0.0415
     65 H           7.5409    7.1553    9.6086 H       2  LIG2        0.0415
     66 C          -0.3391   11.7032   11.2460 C.3     1  LIG1       -0.0397
     67 H          -0.8264   12.4564   10.8536 H       1  LIG1        0.0278
     68 H          -0.8991   10.8986   11.2128 H       1  LIG1        0.0278
     69 H          -0.1157   11.9075   12.1779 H       1  LIG1        0.0278
@<TRIPOS>BOND
     1    39    38    1
     2    22    21    1
     3     5    30    2
     4    38    21   ar
     5    38    32   ar
     6    21    26   ar
     7    62    61    1
     8    30    32    1
     9    30    35    1
    10    32    43   ar
    11    61    35   ar
    12    61    15   ar
    13    26    27    1
    14    26    51   ar
    15    35    56   ar
    16    16    15    1
    17    15    36   ar
    18    43    51   ar
    19    43    25    1
    20    51    12    1
    21    56    25    1
    22    56    44   ar
    23    25     6    2
    24    36    44   ar
    25    36    37    1
    26     3     2    2
    27    12    13    1
    28    12     2    1
    29    44     9    1
    30    46    45    1
    31     2    28    1
    32     2     8    2
    33    10     9    1
    34    45    28   ar
    35    45    47   ar
    36     9     1    1
    37    28    40   ar
    38    48    47    1
    39    47    31   ar
    40     4     1    2
    41    65    63    1
    42     1    29    1
    43     1     7    2
    44    40    41    1
    45    40    49   ar
    46    64    63    1
    47    20    19    1
    48    63    14    1
    49    63    52    1
    50    31    49   ar
    51    31    66    1
    52    29    19   ar
    53    29    33   ar
    54    19    17   ar
    55    49    50    1
    56    67    66    1
    57    14    11    3
    58    53    52    1
    59    34    33    1
    60    68    66    1
    61    33    23   ar
    62    66    69    1
    63    17    18    1
    64    17    42   ar
    65    52    55    1
    66    52    54    1
    67    23    42   ar
    68    23    24    1
    69    59    57    1
    70    42    57    1
    71    57    58    1
    72    57    60    1
