@<TRIPOS>MOLECULE
C34 H34 N2 O6 S2
 78 82 0 0 0
SMALL
GASTEIGER

@<TRIPOS>ATOM
      1 S           3.0717    3.4159    6.6296 S.O2    1  LIG1        0.0724
      2 S           7.7212   13.0981    7.4961 S.O2    1  LIG1        0.0724
      3 O           6.8168   14.0354    8.0842 O.2     1  LIG1       -0.1500
      4 O           6.9780    9.7324    5.4218 O.2     1  LIG1       -0.2865
      5 O           4.0639    2.5475    6.0710 O.2     1  LIG1       -0.1500
      6 O           8.4476   13.4317    6.3080 O.2     1  LIG1       -0.1500
      7 O           3.6014    6.9161    8.5347 O.2     1  LIG1       -0.2865
      8 O           2.4382    3.0836    7.8663 O.2     1  LIG1       -0.1500
      9 N           6.8771   11.7550    7.0514 N.pl3   1  LIG1       -0.2155
     10 H           7.1654   11.3656    6.3836 H       1  LIG1        0.1737
     11 N           3.7565    4.8752    6.9463 N.pl3   1  LIG1       -0.2155
     12 H           3.4219    5.2888    7.5859 H       1  LIG1        0.1737
     13 C           4.3918    7.5315    7.8105 C.2     1  LIG1        0.1964
     14 C           6.2084    9.1016    6.1597 C.2     1  LIG1        0.1964
     15 C          11.7119   11.5034   11.8123 C.3     1  LIG1       -0.0127
     16 C           6.0231   10.9766    7.8435 C.ar    1  LIG1        0.0595
     17 C           4.6122    5.6338    6.1510 C.ar    1  LIG1        0.0595
     18 C           4.9443    6.9442    6.5802 C.ar    1  LIG1        0.0554
     19 C           8.8691   12.5986    8.7373 C.ar    1  LIG1        0.1085
     20 C           5.8211    7.7157    5.7807 C.ar    1  LIG1        0.0350
     21 C           5.6747    9.6774    7.4058 C.ar    1  LIG1        0.0554
     22 C           4.7991    8.9090    8.2061 C.ar    1  LIG1        0.0350
     23 C           2.0498    3.3442    4.0944 C.ar    1  LIG1       -0.0348
     24 H           2.9126    3.0644    3.8115 H       1  LIG1        0.0637
     25 C           8.5564   12.7869   10.0747 C.ar    1  LIG1       -0.0348
     26 H           7.7221   13.1646   10.3268 H       1  LIG1        0.0637
     27 C           4.3053    9.4093    9.3996 C.ar    1  LIG1       -0.0501
     28 H           3.7313    8.8765    9.9380 H       1  LIG1        0.0625
     29 C           5.9848    5.9306    4.1907 C.ar    1  LIG1       -0.0593
     30 H           6.3274    5.5911    3.3728 H       1  LIG1        0.0618
     31 C           4.6513   10.6901    9.8060 C.ar    1  LIG1       -0.0593
     32 H           4.3073   11.0341   10.6223 H       1  LIG1        0.0618
     33 C          10.0886   12.0525    8.3652 C.ar    1  LIG1       -0.0348
     34 H          10.2961   11.9243    7.4465 H       1  LIG1        0.0637
     35 C          -0.4577    4.2093    4.9120 C.ar    1  LIG1       -0.0562
     36 H          -1.3082    4.5237    5.1928 H       1  LIG1        0.0621
     37 C           5.4903   11.4710    9.0367 C.ar    1  LIG1       -0.0386
     38 H           5.7070   12.3516    9.3203 H       1  LIG1        0.0637
     39 C           5.1429    5.1439    4.9543 C.ar    1  LIG1       -0.0386
     40 H           4.9239    4.2652    4.6646 H       1  LIG1        0.0637
     41 C          -0.2668    3.8595    3.5762 C.ar    1  LIG1       -0.0419
     42 C           9.4817   12.4156   11.0375 C.ar    1  LIG1       -0.0562
     43 H           9.2654   12.5351   11.9550 H       1  LIG1        0.0621
     44 C           6.3369    7.2073    4.6013 C.ar    1  LIG1       -0.0501
     45 H           6.9301    7.7299    4.0750 H       1  LIG1        0.0625
     46 C           0.5693    4.1070    5.8390 C.ar    1  LIG1       -0.0348
     47 H           0.4209    4.3444    6.7469 H       1  LIG1        0.0637
     48 C          10.7233   11.8694   10.6984 C.ar    1  LIG1       -0.0419
     49 C           1.0100    3.4470    3.1849 C.ar    1  LIG1       -0.0562
     50 H           1.1686    3.2312    2.2728 H       1  LIG1        0.0621
     51 C          11.0037   11.6941    9.3447 C.ar    1  LIG1       -0.0562
     52 H          11.8391   11.3218    9.0875 H       1  LIG1        0.0621
     53 C           1.8114    3.6563    5.4295 C.ar    1  LIG1        0.1085
     54 C          -1.4024    3.8435    2.5506 C.3     1  LIG1       -0.0127
     55 C          13.0345   10.9659   11.2633 C.3     1  LIG1       -0.0560
     56 H          12.8625   10.1690   10.7195 H       1  LIG1        0.0238
     57 H          13.4621   11.6532   10.7093 H       1  LIG1        0.0238
     58 H          13.6262   10.7318   12.0088 H       1  LIG1        0.0238
     59 C          -0.9989    4.5706    1.2683 C.3     1  LIG1       -0.0560
     60 H          -0.1767    4.1735    0.9119 H       1  LIG1        0.0238
     61 H          -1.7159    4.4862    0.6050 H       1  LIG1        0.0238
     62 H          -0.8459    5.5181    1.4645 H       1  LIG1        0.0238
     63 C          11.0786   10.4131   12.6910 C.3     1  LIG1       -0.0560
     64 H          10.2281   10.7381   13.0537 H       1  LIG1        0.0238
     65 H          10.9182    9.6103   12.1520 H       1  LIG1        0.0238
     66 H          11.6856   10.1940   13.4285 H       1  LIG1        0.0238
     67 C          12.0078   12.7471   12.6565 C.3     1  LIG1       -0.0560
     68 H          11.1698   13.1042   13.0166 H       1  LIG1        0.0238
     69 H          12.6044   12.5059   13.3952 H       1  LIG1        0.0238
     70 H          12.4389   13.4273   12.0970 H       1  LIG1        0.0238
     71 C          -2.6757    4.4806    3.0753 C.3     1  LIG1       -0.0560
     72 H          -2.9527    4.0276    3.8997 H       1  LIG1        0.0238
     73 H          -2.5141    5.4285    3.2628 H       1  LIG1        0.0238
     74 H          -3.3840    4.3965    2.4033 H       1  LIG1        0.0238
     75 C          -1.6755    2.3675    2.1897 C.3     1  LIG1       -0.0560
     76 H          -0.8534    1.9554    1.8507 H       1  LIG1        0.0238
     77 H          -1.9765    1.8866    2.9891 H       1  LIG1        0.0238
     78 H          -2.3709    2.3223    1.5003 H       1  LIG1        0.0238
@<TRIPOS>BOND
     1    61    59    1
     2    60    59    1
     3    59    62    1
     4    59    54    1
     5    78    75    1
     6    76    75    1
     7    75    54    1
     8    75    77    1
     9    50    49    1
    10    74    71    1
    11    54    71    1
    12    54    41    1
    13    71    73    1
    14    71    72    1
    15    49    41   ar
    16    49    23   ar
    17    30    29    1
    18    41    35   ar
    19    24    23    1
    20    45    44    1
    21    23    53   ar
    22    29    44   ar
    23    29    39   ar
    24    44    20   ar
    25    40    39    1
    26    35    36    1
    27    35    46   ar
    28    39    17   ar
    29     4    14    2
    30    53    46   ar
    31    53     1    1
    32    20    14    1
    33    20    18   ar
    34    46    47    1
    35     5     1    2
    36    17    18   ar
    37    17    11    1
    38    14    21    1
    39     6     2    2
    40    10     9    1
    41    18    13    1
    42     1    11    1
    43     1     8    2
    44    11    12    1
    45     9     2    1
    46     9    16    1
    47    21    16   ar
    48    21    22   ar
    49    34    33    1
    50     2     3    2
    51     2    19    1
    52    13    22    1
    53    13     7    2
    54    16    37   ar
    55    22    27   ar
    56    33    19   ar
    57    33    51   ar
    58    19    25   ar
    59    37    38    1
    60    37    31   ar
    61    52    51    1
    62    51    48   ar
    63    27    31   ar
    64    27    28    1
    65    31    32    1
    66    25    26    1
    67    25    42   ar
    68    48    42   ar
    69    48    15    1
    70    57    55    1
    71    56    55    1
    72    42    43    1
    73    55    15    1
    74    55    58    1
    75    15    67    1
    76    15    63    1
    77    70    67    1
    78    65    63    1
    79    67    68    1
    80    67    69    1
    81    63    64    1
    82    63    66    1
