@<TRIPOS>MOLECULE
3-ethoxy-6-[(E)-3-pyridyliminomethyl]phenol
 28 29 0 0 0
SMALL
GASTEIGER

@<TRIPOS>ATOM
      1 O           4.7817    2.7454    5.0309 O.3     1  LIG1       -0.5061
      2 H           5.4197    2.2856    5.3260 H       1  LIG1        0.2922
      3 N           7.2429    1.8756    5.1999 N.2     1  LIG1       -0.2533
      4 C           5.2360    3.5846    4.0727 C.ar    1  LIG1        0.1254
      5 C           4.3409    4.4419    3.4478 C.ar    1  LIG1       -0.0193
      6 H           3.4235    4.4278    3.6942 H       1  LIG1        0.0654
      7 N          10.1719   -0.3908    5.4716 N.ar    1  LIG1       -0.2612
      8 C           6.1134    5.3725    2.0765 C.ar    1  LIG1       -0.0496
      9 C           4.7741    5.3123    2.4725 C.ar    1  LIG1       -0.0554
     10 H           4.1441    5.8888    2.0566 H       1  LIG1        0.0621
     11 C           6.5914    3.6077    3.6887 C.ar    1  LIG1        0.0347
     12 C           6.9945    4.5092    2.6950 C.ar    1  LIG1       -0.0467
     13 H           7.9087    4.5272    2.4373 H       1  LIG1        0.0628
     14 C           7.5614    2.7108    4.2793 C.2     1  LIG1        0.0389
     15 H           8.4612    2.7412    3.9764 H       1  LIG1        0.0837
     16 C           9.3192    0.5347    5.0144 C.ar    1  LIG1        0.0529
     17 H           9.4966    0.9277    4.1680 H       1  LIG1        0.0851
     18 C           8.1847    0.9546    5.7099 C.ar    1  LIG1        0.0819
     19 C           9.9001   -0.9295    6.6669 C.ar    1  LIG1        0.0277
     20 H          10.4971   -1.5834    7.0106 H       1  LIG1        0.0829
     21 C           8.8015   -0.5869    7.4265 C.ar    1  LIG1       -0.0416
     22 H           8.6475   -1.0004    8.2678 H       1  LIG1        0.0633
     23 C           7.9286    0.3682    6.9414 C.ar    1  LIG1       -0.0334
     24 H           7.1631    0.6204    7.4444 H       1  LIG1        0.0640
     25 C           6.5585    6.3481    1.0180 C.3     1  LIG1       -0.0397
     26 H           6.3326    5.9949    0.1323 H       1  LIG1        0.0278
     27 H           7.5278    6.4782    1.0804 H       1  LIG1        0.0278
     28 H           6.1045    7.2061    1.1531 H       1  LIG1        0.0278
@<TRIPOS>BOND
     1    26    25    1
     2    25    27    1
     3    25    28    1
     4    25     8    1
     5    10     9    1
     6     8     9   ar
     7     8    12   ar
     8    13    12    1
     9     9     5   ar
    10    12    11   ar
    11     5     6    1
    12     5     4   ar
    13    11     4   ar
    14    11    14    1
    15    15    14    1
    16     4     1    1
    17    17    16    1
    18    14     3    2
    19    16     7   ar
    20    16    18   ar
    21     1     2    1
    22     3    18    1
    23     7    19   ar
    24    18    23   ar
    25    19    20    1
    26    19    21   ar
    27    23    21   ar
    28    23    24    1
    29    21    22    1
