@<TRIPOS>MOLECULE
C31 H34 N4 O2
 71 75 0 0 0
SMALL
GASTEIGER

@<TRIPOS>ATOM
      1 O           8.6218    9.1419    6.8980 O.3     1  LIG1       -0.4883
      2 C           7.9216    8.7991    8.0985 C.3     1  LIG1        0.1235
      3 H           7.3610    9.5410    8.3741 H       1  LIG1        0.0731
      4 H           8.5748    8.5936    8.8243 H       1  LIG1        0.0731
      5 C           7.1144    7.5714    7.8567 C.3     1  LIG1        0.1235
      6 H           6.7102    7.3058    8.7061 H       1  LIG1        0.0731
      7 H           7.6822    6.8539    7.5385 H       1  LIG1        0.0731
      8 O           6.0913    7.8681    6.9063 O.3     1  LIG1       -0.4883
      9 C           5.2545    6.8423    6.5455 C.ar    1  LIG1        0.1250
     10 C           4.3954    7.0913    5.4653 C.ar    1  LIG1        0.0083
     11 C           4.4910    8.3795    4.6634 C.3     1  LIG1        0.0278
     12 H           3.5694    8.6372    4.3385 H       1  LIG1        0.0477
     13 H           4.8197    9.1133    5.2421 H       1  LIG1        0.0477
     14 N           5.3650    8.3324    3.4716 N.3     1  LIG1       -0.2938
     15 C           6.7282    7.8945    3.8067 C.3     1  LIG1        0.0007
     16 H           6.9581    8.2854    4.6834 H       1  LIG1        0.0427
     17 H           6.7602    6.8668    3.8931 H       1  LIG1        0.0427
     18 C           7.7665    8.3511    2.7903 C.3     1  LIG1       -0.0273
     19 H           7.5035    8.0853    1.8413 H       1  LIG1        0.0290
     20 H           8.6839    7.8529    2.9976 H       1  LIG1        0.0290
     21 C           7.9849    9.8534    2.7929 C.3     1  LIG1        0.0007
     22 H           8.6306   10.1252    2.0535 H       1  LIG1        0.0427
     23 H           7.1120   10.2882    2.5474 H       1  LIG1        0.0427
     24 N           8.4056   10.4031    4.0850 N.3     1  LIG1       -0.2938
     25 C           9.7533    9.9560    4.4677 C.3     1  LIG1        0.0278
     26 H           9.7698    8.9858    4.5053 H       1  LIG1        0.0477
     27 H          10.4434   10.2317    3.7782 H       1  LIG1        0.0477
     28 C          10.1763   10.5331    5.7974 C.ar    1  LIG1        0.0083
     29 C           9.5162   10.1799    6.9855 C.ar    1  LIG1        0.1250
     30 C           9.7888   10.8590    8.1656 C.ar    1  LIG1       -0.0196
     31 H           9.3260   10.6335    8.9620 H       1  LIG1        0.0654
     32 C          10.7749   11.8382    8.1886 C.ar    1  LIG1       -0.0583
     33 H          10.9567   12.2893    9.0300 H       1  LIG1        0.0619
     34 C          11.4858   12.1376    7.0541 C.ar    1  LIG1       -0.0612
     35 H          12.2099   12.8219    7.0851 H       1  LIG1        0.0618
     36 C          11.1707   11.4931    5.8682 C.ar    1  LIG1       -0.0539
     37 H          11.6510   11.7003    5.0640 H       1  LIG1        0.0622
     38 C           5.2221    5.6227    7.2179 C.ar    1  LIG1       -0.0196
     39 H           5.8428    5.4483    7.9515 H       1  LIG1        0.0654
     40 C           4.3063    4.6498    6.8465 C.ar    1  LIG1       -0.0583
     41 H           4.3006    3.8103    7.3247 H       1  LIG1        0.0619
     42 C           3.4216    4.8891    5.8167 C.ar    1  LIG1       -0.0612
     43 H           2.7641    4.2315    5.5676 H       1  LIG1        0.0618
     44 C           3.4794    6.1001    5.1383 C.ar    1  LIG1       -0.0539
     45 H           2.8623    6.2746    4.4146 H       1  LIG1        0.0622
     46 C           4.7946    7.5032    2.4021 C.3     1  LIG1        0.0245
     47 H           5.5165    7.3704    1.7215 H       1  LIG1        0.0476
     48 H           4.5139    6.5618    2.7255 H       1  LIG1        0.0476
     49 C           3.6270    8.1866    1.7422 C.ar    1  LIG1       -0.0305
     50 C           2.3492    7.6573    1.7487 C.ar    1  LIG1       -0.0392
     51 H           2.1613    6.8120    2.1684 H       1  LIG1        0.0636
     52 C           1.3264    8.3317    1.1174 C.ar    1  LIG1        0.0278
     53 H           0.4191    7.9400    1.0964 H       1  LIG1        0.0829
     54 N           1.4790    9.4922    0.4706 N.ar    1  LIG1       -0.2632
     55 C           2.7223    9.9946    0.4658 C.ar    1  LIG1        0.0278
     56 H           2.8434   10.8562   -0.0146 H       1  LIG1        0.0829
     57 C           3.7983    9.3946    1.0761 C.ar    1  LIG1       -0.0392
     58 H           4.6719    9.8008    1.0575 H       1  LIG1        0.0636
     59 C           8.2633   11.8618    4.0630 C.3     1  LIG1        0.0245
     60 H           8.6357   12.2538    3.2033 H       1  LIG1        0.0476
     61 H           8.7983   12.2538    4.8259 H       1  LIG1        0.0476
     62 C           6.8297   12.2625    4.2810 C.ar    1  LIG1       -0.0305
     63 C           6.2071   13.2313    3.5088 C.ar    1  LIG1       -0.0392
     64 H           6.6926   13.6756    2.7595 H       1  LIG1        0.0636
     65 C           4.9076   13.5978    3.7934 C.ar    1  LIG1        0.0278
     66 H           4.4671   14.2872    3.2454 H       1  LIG1        0.0829
     67 N           4.1756   13.0694    4.7701 N.ar    1  LIG1       -0.2632
     68 C           4.7853   12.1286    5.4977 C.ar    1  LIG1        0.0278
     69 H           4.2276   11.7309    6.2219 H       1  LIG1        0.0829
     70 C           6.0791   11.7083    5.2983 C.ar    1  LIG1       -0.0392
     71 H           6.4584   11.0128    5.8575 H       1  LIG1        0.0636
@<TRIPOS>BOND
     1    56    55    1
     2    55    54   ar
     3    55    57   ar
     4    54    52   ar
     5    58    57    1
     6    57    49   ar
     7    53    52    1
     8    52    50   ar
     9    47    46    1
    10    49    50   ar
    11    49    46    1
    12    50    51    1
    13    19    18    1
    14    22    21    1
    15    46    48    1
    16    46    14    1
    17    23    21    1
    18    64    63    1
    19    18    21    1
    20    18    20    1
    21    18    15    1
    22    21    24    1
    23    60    59    1
    24    66    65    1
    25    14    15    1
    26    14    11    1
    27    63    65   ar
    28    63    62   ar
    29    27    25    1
    30    65    67   ar
    31    15    17    1
    32    15    16    1
    33    59    24    1
    34    59    62    1
    35    59    61    1
    36    24    25    1
    37    62    70   ar
    38    12    11    1
    39    45    44    1
    40    25    26    1
    41    25    28    1
    42    11    13    1
    43    11    10    1
    44    67    68   ar
    45    37    36    1
    46    44    10   ar
    47    44    42   ar
    48    70    68   ar
    49    70    71    1
    50    10     9   ar
    51    68    69    1
    52    43    42    1
    53    28    36   ar
    54    28    29   ar
    55    42    40   ar
    56    36    34   ar
    57     9     8    1
    58     9    38   ar
    59    40    38   ar
    60    40    41    1
    61     1    29    1
    62     1     2    1
    63     8     5    1
    64    29    30   ar
    65    34    35    1
    66    34    32   ar
    67    38    39    1
    68     7     5    1
    69     5     2    1
    70     5     6    1
    71     2     3    1
    72     2     4    1
    73    30    32   ar
    74    30    31    1
    75    32    33    1
