@<TRIPOS>MOLECULE
C16 H20 Br N O2 S
 41 44 0 0 0
SMALL
GASTEIGER

@<TRIPOS>ATOM
      1 BR          1.3140    4.9172   11.0261 Br      1  LIG1       -0.0503
      2 S           2.9548    1.0115    6.2167 S.O2    1  LIG1        0.0589
      3 O           2.1364   -0.1571    6.3127 O.2     1  LIG1       -0.1530
      4 O           4.3803    0.8871    6.4056 O.2     1  LIG1       -0.1530
      5 N           2.7993    1.6656    4.7512 N.3     1  LIG1       -0.1838
      6 C           2.4120    2.1396    7.4758 C.ar    1  LIG1        0.1053
      7 C           3.0107    3.3907    7.5788 C.ar    1  LIG1       -0.0343
      8 C           2.6797    4.2196    8.6308 C.ar    1  LIG1       -0.0459
      9 C           1.7542    3.7858    9.5663 C.ar    1  LIG1        0.0180
     10 C           1.1485    2.5482    9.4694 C.ar    1  LIG1       -0.0459
     11 C           1.4816    1.7160    8.4128 C.ar    1  LIG1       -0.0343
     12 C           1.5559    1.8589    3.9579 C.3     1  LIG1        0.0408
     13 C           2.0630    2.2346    2.5541 C.3     1  LIG1       -0.0302
     14 C           0.8793    2.4764    1.6136 C.3     1  LIG1       -0.0388
     15 C           0.0475    1.1891    1.5097 C.3     1  LIG1       -0.0472
     16 C          -0.4591    0.8134    2.9029 C.3     1  LIG1       -0.0388
     17 C           0.7267    0.5748    3.8538 C.3     1  LIG1       -0.0302
     18 C           0.6833    2.9937    4.5044 C.3     1  LIG1       -0.0302
     19 C          -0.5060    3.2297    3.5543 C.3     1  LIG1       -0.0388
     20 C          -1.3372    1.9456    3.4549 C.3     1  LIG1       -0.0472
     21 C           0.0111    3.6093    2.1677 C.3     1  LIG1       -0.0472
     22 H           3.3733    2.2501    4.6256 H       1  LIG1        0.1486
     23 H           3.6589    3.6662    6.9500 H       1  LIG1        0.0637
     24 H           3.0607    5.0693    8.7182 H       1  LIG1        0.0629
     25 H           0.5418    2.2889   10.1712 H       1  LIG1        0.0629
     26 H           1.0665    0.8858    8.3353 H       1  LIG1        0.0637
     27 H           2.5651    3.0519    2.6671 H       1  LIG1        0.0286
     28 H           2.5926    1.5195    2.2398 H       1  LIG1        0.0286
     29 H           1.2535    2.7545    0.7255 H       1  LIG1        0.0302
     30 H          -0.7008    1.3126    0.9264 H       1  LIG1        0.0271
     31 H           0.6033    0.4461    1.1294 H       1  LIG1        0.0271
     32 H          -1.0193   -0.0323    2.8807 H       1  LIG1        0.0302
     33 H           0.3958    0.2845    4.7482 H       1  LIG1        0.0286
     34 H           1.2743   -0.0970    3.5617 H       1  LIG1        0.0286
     35 H           1.1863    3.7696    4.6171 H       1  LIG1        0.0286
     36 H           0.3360    2.7674    5.4335 H       1  LIG1        0.0286
     37 H          -1.1100    3.9895    3.8980 H       1  LIG1        0.0302
     38 H          -2.0810    2.0562    2.8320 H       1  LIG1        0.0271
     39 H          -1.7464    1.6811    4.3295 H       1  LIG1        0.0271
     40 H           0.5028    4.4033    2.1912 H       1  LIG1        0.0271
     41 H          -0.7706    3.7761    1.5461 H       1  LIG1        0.0271
@<TRIPOS>BOND
     1    29    14    1
     2    30    15    1
     3    31    15    1
     4    15    14    1
     5    15    16    1
     6    41    21    1
     7    14    21    1
     8    14    13    1
     9    21    40    1
    10    21    19    1
    11    28    13    1
    12    13    27    1
    13    13    12    1
    14    38    20    1
    15    32    16    1
    16    16    20    1
    17    16    17    1
    18    20    19    1
    19    20    39    1
    20    19    37    1
    21    19    18    1
    22    34    17    1
    23    17    12    1
    24    17    33    1
    25    12    18    1
    26    12     5    1
    27    18    35    1
    28    18    36    1
    29    22     5    1
    30     5     2    1
    31     2     3    2
    32     2     4    2
    33     2     6    1
    34    23     7    1
    35     6     7   ar
    36     6    11   ar
    37     7     8   ar
    38    26    11    1
    39    11    10   ar
    40     8    24    1
    41     8     9   ar
    42    10     9   ar
    43    10    25    1
    44     9     1    1
