@<TRIPOS>MOLECULE
7230723.cif
 62 68 0 0 0
SMALL
GASTEIGER

@<TRIPOS>ATOM
      1 I          -4.0143    4.9140   -0.2564 I       1  LIG1       -0.0438
      2 N           1.7817    1.3635    0.2399 N.pl3   1  LIG1       -0.3093
      3 C          -2.5732    3.4170   -0.5461 C.ar    1  LIG1        0.0138
      4 I          -0.1977   -3.3744    3.8769 I       1  LIG1       -0.0438
      5 C          -2.8800    2.3614   -1.3855 C.ar    1  LIG1       -0.0468
      6 H          -3.7291    2.2904   -1.7584 H       1  LIG1        0.0628
      7 N           0.3443    0.5904   -1.5368 N.pl3   1  LIG1       -0.3093
      8 C          -1.9265    1.4246   -1.6607 C.ar    1  LIG1       -0.0393
      9 H          -2.1340    0.7146   -2.2246 H       1  LIG1        0.0636
     10 C          -0.6446    1.5099   -1.1111 C.ar    1  LIG1        0.0359
     11 C          -0.3573    2.5216   -0.2150 C.ar    1  LIG1       -0.0081
     12 C          -1.3339    3.4951    0.0636 C.ar    1  LIG1       -0.0422
     13 H          -1.1480    4.1885    0.6554 H       1  LIG1        0.0632
     14 C           0.9957    2.5886    0.4764 C.3     1  LIG1        0.0405
     15 H           1.4544    3.2810    0.1376 H       1  LIG1        0.0514
     16 H           0.8779    2.6503    1.4792 H       1  LIG1        0.0514
     17 C           1.3293    0.2763    1.0372 C.ar    1  LIG1        0.0359
     18 C           1.6565    0.2571    2.3899 C.ar    1  LIG1       -0.0393
     19 H           2.1354    1.0828    2.6058 H       1  LIG1        0.0636
     20 C           1.2388   -0.7741    3.2095 C.ar    1  LIG1       -0.0468
     21 H           1.4567   -0.7740    4.1139 H       1  LIG1        0.0628
     22 C           0.4991   -1.8020    2.6737 C.ar    1  LIG1        0.0138
     23 C           0.1675   -1.8097    1.3373 C.ar    1  LIG1       -0.0422
     24 H          -0.3347   -2.5091    0.9857 H       1  LIG1        0.0632
     25 C           0.5841   -0.7759    0.5186 C.ar    1  LIG1       -0.0081
     26 C           0.1533   -0.7420   -0.9426 C.3     1  LIG1        0.0405
     27 H          -0.7974   -1.0385   -1.0922 H       1  LIG1        0.0514
     28 H           0.5683   -1.3664   -1.5308 H       1  LIG1        0.0514
     29 C           1.6729    1.0402   -1.1816 C.3     1  LIG1        0.0793
     30 H           2.3246    0.3464   -1.3158 H       1  LIG1        0.0673
     31 H           1.7565    1.8788   -1.7888 H       1  LIG1        0.0673
     32 I           3.5033   -2.9837   -0.6128 I       2  LIG2       -0.0438
     33 N           5.4236   -0.4752    4.8332 N.pl3   2  LIG2       -0.3093
     34 I           0.3293    3.9009    4.5996 I       2  LIG2       -0.0438
     35 N           6.0593    1.5421    3.6653 N.pl3   2  LIG2       -0.3093
     36 C           4.1896   -2.1759    1.1988 C.ar    2  LIG2        0.0138
     37 C           4.9114   -1.0023    1.1782 C.ar    2  LIG2       -0.0422
     38 H           5.1200   -0.6022    0.3649 H       2  LIG2        0.0632
     39 C           5.3271   -0.4132    2.3624 C.ar    2  LIG2       -0.0081
     40 C           5.0172   -1.0517    3.5836 C.ar    2  LIG2        0.0359
     41 C           4.3239   -2.2324    3.5913 C.ar    2  LIG2       -0.0393
     42 H           4.1398   -2.6542    4.3995 H       2  LIG2        0.0636
     43 C           3.8918   -2.8068    2.3994 C.ar    2  LIG2       -0.0468
     44 H           3.4108   -3.6030    2.4071 H       2  LIG2        0.0628
     45 C           6.0860    0.8909    2.3409 C.3     2  LIG2        0.0405
     46 H           7.0686    0.7429    2.0640 H       2  LIG2        0.0514
     47 H           5.6806    1.6061    1.6426 H       2  LIG2        0.0514
     48 C           4.7967    2.0979    3.9878 C.ar    2  LIG2        0.0359
     49 C           4.3882    3.2571    3.3290 C.ar    2  LIG2       -0.0393
     50 H           4.9318    3.6906    2.7606 H       2  LIG2        0.0636
     51 C           3.1489    3.8072    3.5501 C.ar    2  LIG2       -0.0468
     52 H           2.9133    4.5627    3.1562 H       2  LIG2        0.0628
     53 C           2.3008    3.2038    4.4479 C.ar    2  LIG2        0.0138
     54 C           2.6761    2.0800    5.1471 C.ar    2  LIG2       -0.0422
     55 H           1.9647    1.6771    5.7792 H       2  LIG2        0.0632
     56 C           3.9502    1.4999    4.8977 C.ar    2  LIG2       -0.0081
     57 C           4.3167    0.1710    5.5358 C.3     2  LIG2        0.0405
     58 H           4.6664    0.2351    6.4672 H       2  LIG2        0.0514
     59 H           3.6261   -0.4671    5.5814 H       2  LIG2        0.0514
     60 C           6.4722    0.5425    4.6405 C.3     2  LIG2        0.0793
     61 H           6.7747    1.0405    5.5040 H       2  LIG2        0.0673
     62 H           7.2994    0.2056    4.4290 H       2  LIG2        0.0673
@<TRIPOS>BOND
     1     9     8    1
     2    31    29    1
     3     6     5    1
     4     8     5   ar
     5     8    10   ar
     6     7    29    1
     7     7    10    1
     8     7    26    1
     9    28    26    1
    10     5     3   ar
    11    30    29    1
    12    29     2    1
    13    10    11   ar
    14    27    26    1
    15    26    25    1
    16    32    36    1
    17     3     1    1
    18     3    12   ar
    19    11    12   ar
    20    11    14    1
    21    12    13    1
    22    15    14    1
    23     2    14    1
    24     2    17    1
    25    38    37    1
    26    14    16    1
    27    25    17   ar
    28    25    23   ar
    29    24    23    1
    30    17    18   ar
    31    37    36   ar
    32    37    39   ar
    33    36    43   ar
    34    23    22   ar
    35    47    45    1
    36    46    45    1
    37    45    39    1
    38    45    35    1
    39    39    40   ar
    40    18    19    1
    41    18    20   ar
    42    43    44    1
    43    43    41   ar
    44    22    20   ar
    45    22     4    1
    46    50    49    1
    47    52    51    1
    48    20    21    1
    49    49    51   ar
    50    49    48   ar
    51    51    53   ar
    52    40    41   ar
    53    40    33    1
    54    41    42    1
    55    35    48    1
    56    35    60    1
    57    48    56   ar
    58    62    60    1
    59    53    34    1
    60    53    54   ar
    61    60    33    1
    62    60    61    1
    63    33    57    1
    64    56    54   ar
    65    56    57    1
    66    54    55    1
    67    57    59    1
    68    57    58    1
