@<TRIPOS>MOLECULE
C23 H18 N2 O5 S
 49 52 0 0 0
SMALL
GASTEIGER

@<TRIPOS>ATOM
      1 S          12.9085    6.6395    0.1645 S.O2    1  LIG1        0.0724
      2 O          13.4855    7.8484   -0.3142 O.2     1  LIG1       -0.1500
      3 O          12.2591    5.7751   -0.7642 O.2     1  LIG1       -0.1500
      4 O          12.2184   10.4741    5.6635 O.3     1  LIG1       -0.4217
      5 O          11.1554   12.0491    4.4860 O.2     1  LIG1       -0.2445
      6 O          11.8383   14.9249   10.0856 O.3     1  LIG1       -0.4951
      7 N          10.3747    6.5451    3.5205 N.ar    1  LIG1       -0.2530
      8 N          11.7703    7.0202    1.2727 N.pl3   1  LIG1       -0.2142
      9 H          10.9878    6.6756    1.1779 H       1  LIG1        0.1738
     10 C          11.1891    7.6353    3.5306 C.ar    1  LIG1        0.0967
     11 C          11.9842    7.8778    2.3767 C.ar    1  LIG1        0.0741
     12 C          12.8654    8.9296    2.3831 C.ar    1  LIG1       -0.0337
     13 H          13.4204    9.0704    1.6508 H       1  LIG1        0.0638
     14 C          12.9352    9.7950    3.4887 C.ar    1  LIG1       -0.0167
     15 H          13.5379   10.5037    3.4789 H       1  LIG1        0.0655
     16 C          12.1476    9.6132    4.5550 C.ar    1  LIG1        0.1412
     17 C          11.2559    8.5207    4.6405 C.ar    1  LIG1        0.0446
     18 C          10.4453    8.2283    5.7525 C.ar    1  LIG1       -0.0475
     19 H          10.4566    8.7813    6.4991 H       1  LIG1        0.0626
     20 C           9.6494    7.1370    5.7274 C.ar    1  LIG1       -0.0429
     21 H           9.1065    6.9328    6.4542 H       1  LIG1        0.0633
     22 C           9.6523    6.3178    4.5933 C.ar    1  LIG1        0.0283
     23 H           9.1072    5.5634    4.5988 H       1  LIG1        0.0830
     24 C          14.1357    5.7448    1.0460 C.ar    1  LIG1        0.1085
     25 C          13.8574    4.4593    1.4702 C.ar    1  LIG1       -0.0351
     26 H          13.0352    4.0688    1.2819 H       1  LIG1        0.0637
     27 C          14.8127    3.7661    2.1740 C.ar    1  LIG1       -0.0599
     28 H          14.6326    2.9048    2.4751 H       1  LIG1        0.0618
     29 C          16.0374    4.3438    2.4357 C.ar    1  LIG1       -0.0616
     30 H          16.6818    3.8662    2.9064 H       1  LIG1        0.0618
     31 C          16.3107    5.6194    2.0065 C.ar    1  LIG1       -0.0599
     32 H          17.1414    6.0000    2.1817 H       1  LIG1        0.0618
     33 C          15.3563    6.3371    1.3168 C.ar    1  LIG1       -0.0351
     34 H          15.5305    7.2074    1.0378 H       1  LIG1        0.0637
     35 C          11.6789   11.7191    5.5019 C.2     1  LIG1        0.3445
     36 C          11.8210   12.5349    6.7148 C.ar    1  LIG1        0.0596
     37 C          12.4617   12.0950    7.8554 C.ar    1  LIG1       -0.0443
     38 H          12.8794   11.2641    7.8532 H       1  LIG1        0.0627
     39 C          12.4910   12.8664    8.9961 C.ar    1  LIG1       -0.0192
     40 H          12.9202   12.5536    9.7602 H       1  LIG1        0.0654
     41 C          11.8844   14.1051    9.0037 C.ar    1  LIG1        0.1201
     42 C          11.2631   14.5717    7.8489 C.ar    1  LIG1       -0.0192
     43 H          10.8734   15.4159    7.8423 H       1  LIG1        0.0654
     44 C          11.2244   13.7961    6.7279 C.ar    1  LIG1       -0.0443
     45 H          10.7962   14.1114    5.9649 H       1  LIG1        0.0627
     46 C          12.4124   14.4485   11.3070 C.3     1  LIG1        0.0788
     47 H          13.3445   14.2639   11.1723 H       1  LIG1        0.0660
     48 H          11.9627   13.6446   11.5795 H       1  LIG1        0.0660
     49 H          12.3136   15.1167   11.9889 H       1  LIG1        0.0660
@<TRIPOS>BOND
     1     3     1    2
     2     2     1    2
     3     1    24    1
     4     1     8    1
     5    34    33    1
     6    24    33   ar
     7    24    25   ar
     8     9     8    1
     9     8    11    1
    10    26    25    1
    11    33    31   ar
    12    25    27   ar
    13    13    12    1
    14    31    32    1
    15    31    29   ar
    16    27    29   ar
    17    27    28    1
    18    11    12   ar
    19    11    10   ar
    20    12    14   ar
    21    29    30    1
    22    15    14    1
    23    14    16   ar
    24     7    10   ar
    25     7    22   ar
    26    10    17   ar
    27     5    35    2
    28    16    17   ar
    29    16     4    1
    30    22    23    1
    31    22    20   ar
    32    17    18   ar
    33    35     4    1
    34    35    36    1
    35    20    18   ar
    36    20    21    1
    37    18    19    1
    38    45    44    1
    39    36    44   ar
    40    36    37   ar
    41    44    42   ar
    42    43    42    1
    43    42    41   ar
    44    38    37    1
    45    37    39   ar
    46    39    41   ar
    47    39    40    1
    48    41     6    1
    49     6    46    1
    50    47    46    1
    51    46    48    1
    52    46    49    1
