@<TRIPOS>MOLECULE
indolin-2-one
 34 36 0 0 0
SMALL
GASTEIGER

@<TRIPOS>ATOM
      1 O          -1.1833    8.5418   13.9528 O.2     1  LIG1       -0.2751
      2 N          -2.0820    7.9223   11.9356 N.am    1  LIG1       -0.2850
      3 H          -1.4136    8.2277   11.4360 H       1  LIG1        0.1548
      4 C          -3.1884    7.2032   11.4705 C.ar    1  LIG1        0.0370
      5 C          -3.5295    6.9062   10.1686 C.ar    1  LIG1       -0.0402
      6 H          -3.0017    7.1843    9.4552 H       1  LIG1        0.0636
      7 C          -4.6910    6.1757    9.9619 C.ar    1  LIG1       -0.0600
      8 H          -4.9505    5.9668    9.0937 H       1  LIG1        0.0618
      9 C          -5.4619    5.7570   11.0150 C.ar    1  LIG1       -0.0614
     10 H          -6.2348    5.2651   10.8545 H       1  LIG1        0.0618
     11 C          -5.0967    6.0627   12.3187 C.ar    1  LIG1       -0.0564
     12 H          -5.6176    5.7735   13.0325 H       1  LIG1        0.0621
     13 C          -3.9593    6.7954   12.5430 C.ar    1  LIG1       -0.0174
     14 C          -3.3011    7.3032   13.7994 C.3     1  LIG1        0.0512
     15 H          -3.0667    6.5714   14.3913 H       1  LIG1        0.0408
     16 H          -3.8806    7.9217   14.2725 H       1  LIG1        0.0408
     17 C          -2.0629    8.0028   13.2821 C.2     1  LIG1        0.2216
     18 O           2.7170    7.6854   14.8023 O.2     2  LIG2       -0.2751
     19 N           1.8103    6.7480   12.9059 N.am    2  LIG2       -0.2850
     20 H           2.3859    7.1122   12.3410 H       2  LIG2        0.1548
     21 C           0.7692    5.8585   12.5806 C.ar    2  LIG2        0.0370
     22 C           0.3670    5.4161   11.3444 C.ar    2  LIG2       -0.0402
     23 H           0.7892    5.7039   10.5676 H       2  LIG2        0.0636
     24 C          -0.6905    4.5267   11.2989 C.ar    2  LIG2       -0.0600
     25 H          -0.9814    4.2043   10.4765 H       2  LIG2        0.0618
     26 C          -1.3196    4.1110   12.4458 C.ar    2  LIG2       -0.0614
     27 H          -2.0286    3.5126   12.3903 H       2  LIG2        0.0618
     28 C          -0.9080    4.5752   13.6870 C.ar    2  LIG2       -0.0564
     29 H          -1.3359    4.2922   14.4634 H       2  LIG2        0.0621
     30 C           0.1415    5.4599   13.7512 C.ar    2  LIG2       -0.0174
     31 C           0.8147    6.1418   14.8987 C.3     2  LIG2        0.0512
     32 H           1.1896    5.5471   15.5454 H       2  LIG2        0.0408
     33 H           0.2188    6.7746   15.3849 H       2  LIG2        0.0408
     34 C           1.8971    6.9542   14.2395 C.2     2  LIG2        0.2216
@<TRIPOS>BOND
     1     8     7    1
     2     6     5    1
     3     7     5   ar
     4     7     9   ar
     5     5     4   ar
     6    25    24    1
     7    23    22    1
     8    10     9    1
     9     9    11   ar
    10    24    22   ar
    11    24    26   ar
    12    22    21   ar
    13     3     2    1
    14     4     2    1
    15     4    13   ar
    16     2    17   am
    17    11    13   ar
    18    11    12    1
    19    20    19    1
    20    27    26    1
    21    26    28   ar
    22    13    14    1
    23    21    19    1
    24    21    30   ar
    25    19    34   am
    26    17    14    1
    27    17     1    2
    28    28    30   ar
    29    28    29    1
    30    30    31    1
    31    14    16    1
    32    14    15    1
    33    34    18    2
    34    34    31    1
    35    31    33    1
    36    31    32    1
