@<TRIPOS>MOLECULE
C29 H18 O
 48 53 0 0 0
SMALL
GASTEIGER

@<TRIPOS>ATOM
      1 C          -0.2531    0.9569   16.1755 C.ar    1  LIG1       -0.0065
      2 C           0.9760    1.2684   16.8357 C.ar    1  LIG1       -0.0533
      3 H           1.2629    2.1518   16.8736 H       1  LIG1        0.0624
      4 C           1.7311    0.2974   17.4069 C.ar    1  LIG1       -0.0611
      5 H           2.5211    0.5284   17.8397 H       1  LIG1        0.0618
      6 C           1.3393   -1.0572   17.3564 C.ar    1  LIG1       -0.0612
      7 H           1.8714   -1.7107   17.7493 H       1  LIG1        0.0618
      8 C           0.1926   -1.4024   16.7386 C.ar    1  LIG1       -0.0540
      9 H          -0.0555   -2.2988   16.7079 H       1  LIG1        0.0624
     10 C          -0.6479   -0.4232   16.1318 C.ar    1  LIG1       -0.0166
     11 C          -1.8220   -0.7751   15.4759 C.ar    1  LIG1       -0.0463
     12 H          -2.0957   -1.6632   15.4913 H       1  LIG1        0.0630
     13 C          -2.6016    0.1553   14.7960 C.ar    1  LIG1       -0.0166
     14 C          -3.7782   -0.2427   14.0953 C.ar    1  LIG1       -0.0540
     15 H          -4.0224   -1.1394   14.0827 H       1  LIG1        0.0624
     16 C          -4.5421    0.6622   13.4514 C.ar    1  LIG1       -0.0612
     17 H          -5.3045    0.3875   12.9942 H       1  LIG1        0.0618
     18 C          -4.1831    2.0231   13.4733 C.ar    1  LIG1       -0.0611
     19 H          -4.7238    2.6449   13.0412 H       1  LIG1        0.0618
     20 C          -3.0647    2.4432   14.1111 C.ar    1  LIG1       -0.0533
     21 H          -2.8498    3.3479   14.1034 H       1  LIG1        0.0624
     22 C          -2.2066    1.5281   14.7947 C.ar    1  LIG1       -0.0065
     23 C          -1.0504    1.9194   15.5156 C.ar    1  LIG1        0.0377
     24 C          -0.6670    3.3716   15.5120 C.2     1  LIG1        0.1955
     25 C          -0.3653    4.1233   16.7836 C.ar    1  LIG1        0.0377
     26 C           0.7890    4.9490   16.8177 C.ar    1  LIG1       -0.0065
     27 C           1.7419    5.0239   15.7663 C.ar    1  LIG1       -0.0533
     28 H           1.6016    4.5286   14.9923 H       1  LIG1        0.0624
     29 C           2.8537    5.8010   15.8640 C.ar    1  LIG1       -0.0611
     30 H           3.4645    5.8136   15.1636 H       1  LIG1        0.0618
     31 C           3.0947    6.5839   17.0005 C.ar    1  LIG1       -0.0612
     32 H           3.8459    7.1307   17.0393 H       1  LIG1        0.0618
     33 C           2.2337    6.5413   18.0368 C.ar    1  LIG1       -0.0540
     34 H           2.4013    7.0587   18.7926 H       1  LIG1        0.0624
     35 C           1.0669    5.7153   17.9956 C.ar    1  LIG1       -0.0166
     36 C           0.2043    5.6339   19.0771 C.ar    1  LIG1       -0.0463
     37 H           0.3954    6.1306   19.8396 H       1  LIG1        0.0630
     38 C          -0.9370    4.8389   19.0647 C.ar    1  LIG1       -0.0166
     39 C          -1.8278    4.8054   20.1743 C.ar    1  LIG1       -0.0540
     40 H          -1.6261    5.2975   20.9376 H       1  LIG1        0.0624
     41 C          -2.9605    4.0716   20.1402 C.ar    1  LIG1       -0.0612
     42 H          -3.5289    4.0600   20.8754 H       1  LIG1        0.0618
     43 C          -3.2796    3.3238   18.9888 C.ar    1  LIG1       -0.0611
     44 H          -4.0655    2.8271   18.9696 H       1  LIG1        0.0618
     45 C          -2.4612    3.3165   17.9105 C.ar    1  LIG1       -0.0533
     46 H          -2.6979    2.8149   17.1636 H       1  LIG1        0.0624
     47 C          -1.2403    4.0626   17.8918 C.ar    1  LIG1       -0.0065
     48 O          -0.6072    3.9615   14.4454 O.2     1  LIG1       -0.2866
@<TRIPOS>BOND
     1    17    16    1
     2    19    18    1
     3    16    18   ar
     4    16    14   ar
     5    18    20   ar
     6    15    14    1
     7    14    13   ar
     8    21    20    1
     9    20    22   ar
    10    48    24    2
    11    22    13   ar
    12    22    23   ar
    13    13    11   ar
    14    28    27    1
    15    30    29    1
    16    11    12    1
    17    11    10   ar
    18    24    23    1
    19    24    25    1
    20    23     1   ar
    21    27    29   ar
    22    27    26   ar
    23    29    31   ar
    24    10     1   ar
    25    10     8   ar
    26     1     2   ar
    27     9     8    1
    28     8     6   ar
    29    25    26   ar
    30    25    47   ar
    31    26    35   ar
    32     2     3    1
    33     2     4   ar
    34    31    32    1
    35    31    33   ar
    36    46    45    1
    37     6     4   ar
    38     6     7    1
    39     4     5    1
    40    47    45   ar
    41    47    38   ar
    42    45    43   ar
    43    35    33   ar
    44    35    36   ar
    45    33    34    1
    46    44    43    1
    47    43    41   ar
    48    38    36   ar
    49    38    39   ar
    50    36    37    1
    51    41    39   ar
    52    41    42    1
    53    39    40    1
