@<TRIPOS>MOLECULE
C6 H Cl2 O4, C7 H11 N2
 33 33 0 0 0
SMALL
GASTEIGER

@<TRIPOS>ATOM
      1 CL          0.2574    6.9770    3.4951 Cl      1  LIG1       -0.0755
      2 CL          0.7913    0.8152    2.1122 Cl      1  LIG1       -0.0980
      3 O           1.8823    5.7411    1.3356 O.2     1  LIG1       -0.5023
      4 H           2.2833    5.3205    0.7289 H       1  LIG1        0.2923
      5 O           2.1010    3.1507    0.8116 O.2     1  LIG1       -0.2863
      6 O          -0.9441    2.0748    4.2364 O.2     1  LIG1       -0.2861
      7 O          -1.2211    4.7005    4.6790 O.2     1  LIG1       -0.2824
      8 C           0.3954    5.3144    3.0888 C.2     1  LIG1        0.1359
      9 C           1.1766    4.8910    2.0717 C.2     1  LIG1        0.1841
     10 C           1.3169    3.4264    1.7351 C.2     1  LIG1        0.2296
     11 C           0.5830    2.4892    2.4925 C.3     1  LIG1        0.2088
     12 C          -0.2684    2.8601    3.5276 C.2     1  LIG1        0.2348
     13 C          -0.4106    4.3651    3.8313 C.2     1  LIG1        0.2452
     14 N          -2.5817    2.4967    6.3163 N.pl3   2  LIG2       -0.3359
     15 H          -1.9445    2.5117    5.5949 H       2  LIG2        0.1465
     16 N          -4.1619    2.4870    8.5313 N.2     2  LIG2       -0.2579
     17 C          -3.0412    1.3157    6.7664 C.3     2  LIG2        0.0931
     18 C          -2.6985    0.0660    6.0303 C.3     2  LIG2       -0.0361
     19 H          -2.0939    0.2780    5.2886 H       2  LIG2        0.0255
     20 H          -3.5179   -0.3405    5.6777 H       2  LIG2        0.0255
     21 H          -2.2594   -0.5623    6.6400 H       2  LIG2        0.0255
     22 C          -3.8481    1.3432    7.9235 C.2     2  LIG2        0.0415
     23 C          -4.3736    0.0674    8.5116 C.3     2  LIG2       -0.0241
     24 H          -3.6281   -0.4597    8.8681 H       2  LIG2        0.0290
     25 H          -4.8341   -0.4466    7.8161 H       2  LIG2        0.0290
     26 H          -5.0018    0.2753    9.2346 H       2  LIG2        0.0290
     27 C          -3.6944    3.6550    8.0394 C.2     2  LIG2        0.0516
     28 C          -4.0827    4.9165    8.7302 C.3     2  LIG2       -0.0212
     29 H          -5.0521    5.0406    8.6633 H       2  LIG2        0.0293
     30 H          -3.6266    5.6741    8.3077 H       2  LIG2        0.0293
     31 H          -3.8240    4.8646    9.6739 H       2  LIG2        0.0293
     32 C          -2.8792    3.6534    6.9200 C.2     2  LIG2        0.0115
     33 H          -2.5331    4.4704    6.5819 H       2  LIG2        0.0796
@<TRIPOS>BOND
     1     4     3    1
     2     5    10    2
     3     3     9    1
     4    10     9    1
     5    10    11    1
     6     9     8    2
     7     2    11    1
     8    11    12    1
     9     8     1    1
    10     8    13    1
    11    12    13    1
    12    12     6    2
    13    13     7    2
    14    19    18    1
    15    15    14    1
    16    20    18    1
    17    18    21    1
    18    18    17    1
    19    14    17    1
    20    14    32    1
    21    33    32    1
    22    17    22    1
    23    32    27    2
    24    25    23    1
    25    22    23    1
    26    22    16    2
    27    27    16    1
    28    27    28    1
    29    30    28    1
    30    23    24    1
    31    23    26    1
    32    29    28    1
    33    28    31    1
