@<TRIPOS>MOLECULE
2-{2-[pyridin-2-yl(pyridin-2-ylamino)methylidene]hydrazinecarbonyl}nicotinic acid
 41 43 0 0 0
SMALL
GASTEIGER

@<TRIPOS>ATOM
      1 C           8.0074    5.8405    2.0024 C.2     1  LIG1        0.3004
      2 C           9.2515    7.8802   -0.5321 C.2     1  LIG1        0.3654
      3 C           7.7179    6.8962   -2.3536 C.ar    1  LIG1        0.2124
      4 C           7.2672    7.1937   -3.6392 C.ar    1  LIG1        0.0029
      5 H           7.5123    7.9865   -4.0591 H       1  LIG1        0.0675
      6 C           6.4535    6.2884   -4.2703 C.ar    1  LIG1       -0.0549
      7 H           6.1468    6.4551   -5.1320 H       1  LIG1        0.0620
      8 C           6.0912    5.1225   -3.6140 C.ar    1  LIG1       -0.0433
      9 H           5.5341    4.4983   -4.0203 H       1  LIG1        0.0633
     10 C           6.5764    4.9150   -2.3489 C.ar    1  LIG1        0.0317
     11 H           6.3311    4.1354   -1.9047 H       1  LIG1        0.0831
     12 C          10.2963    8.9530   -0.5419 C.ar    1  LIG1        0.1564
     13 C          11.1434    9.1543    0.5382 C.ar    1  LIG1       -0.0283
     14 H          11.0843    8.6173    1.2957 H       1  LIG1        0.0641
     15 C          12.0726   10.1669    0.4639 C.ar    1  LIG1       -0.0581
     16 H          12.6536   10.3236    1.1725 H       1  LIG1        0.0619
     17 C          12.1331   10.9478   -0.6745 C.ar    1  LIG1       -0.0435
     18 H          12.7548   11.6363   -0.7474 H       1  LIG1        0.0633
     19 C          11.2526   10.6838   -1.6977 C.ar    1  LIG1        0.0285
     20 H          11.2911   11.2140   -2.4614 H       1  LIG1        0.0830
     21 C           7.0361    4.6961    2.1314 C.ar    1  LIG1        0.1425
     22 C           6.9590    3.8070    3.2155 C.ar    1  LIG1        0.0893
     23 C           6.0138    2.7898    3.1092 C.ar    1  LIG1       -0.0441
     24 H           5.9457    2.1592    3.7891 H       1  LIG1        0.0627
     25 C           5.1802    2.6973    2.0235 C.ar    1  LIG1       -0.0428
     26 H           4.5418    2.0232    1.9654 H       1  LIG1        0.0633
     27 C           5.3172    3.6330    1.0227 C.ar    1  LIG1        0.0285
     28 H           4.7452    3.5874    0.2902 H       1  LIG1        0.0830
     29 C           7.7665    3.7673    4.5076 C.2     1  LIG1        0.3390
     30 N           8.1961    6.2779    0.7647 N.am    1  LIG1       -0.1048
     31 N           9.1533    7.2613    0.5949 N.2     1  LIG1        0.0497
     32 N           8.5710    7.8171   -1.7324 N.pl3   1  LIG1       -0.1813
     33 N           7.3898    5.7824   -1.7135 N.ar    1  LIG1       -0.2187
     34 N          10.3431    9.7032   -1.6513 N.ar    1  LIG1       -0.2475
     35 N           6.2311    4.5988    1.0566 N.ar    1  LIG1       -0.2494
     36 O           8.5808    6.3573    2.9900 O.2     1  LIG1       -0.2651
     37 O           8.4463    4.8327    4.8788 O.3     1  LIG1       -0.4771
     38 O           7.7343    2.7771    5.2044 O.2     1  LIG1       -0.2451
     39 H           7.8012    5.8917   -0.0101 H       1  LIG1        0.2046
     40 H           8.5058    5.5002    4.0861 H       1  LIG1        0.2954
     41 H           8.8959    8.4527   -2.2877 H       1  LIG1        0.3001
@<TRIPOS>BOND
     1     7     6    1
     2     6     4   ar
     3     6     8   ar
     4     5     4    1
     5     9     8    1
     6     4     3   ar
     7     8    10   ar
     8    20    19    1
     9     3    32    1
    10     3    33   ar
    11    10    11    1
    12    10    33   ar
    13    41    32    1
    14    32     2    1
    15    19    34   ar
    16    19    17   ar
    17    34    12   ar
    18    18    17    1
    19    17    15   ar
    20    12     2    1
    21    12    13   ar
    22     2    31    2
    23    39    30    1
    24    28    27    1
    25    15    13   ar
    26    15    16    1
    27    13    14    1
    28    31    30    1
    29    30     1   am
    30    27    35   ar
    31    27    25   ar
    32    35    21   ar
    33    26    25    1
    34     1    21    1
    35     1    36    2
    36    25    23   ar
    37    21    22   ar
    38    23    22   ar
    39    23    24    1
    40    22    29    1
    41    40    37    1
    42    29    37    1
    43    29    38    2
