@<TRIPOS>MOLECULE
C9 H23 B8 I
 41 45 0 0 0
SMALL
GASTEIGER

@<TRIPOS>ATOM
      1 I           4.1544   10.1203   12.0903 I       1  LIG1        0.0000
      2 H           1.5124   11.1535    7.5951 H       1  LIG1        0.0000
      3 C           1.4327   10.8526    8.3868 C.3     1  LIG1        0.0000
      4 B           2.4399    9.8094    9.1011 B       1  LIG1        0.0000
      5 B           2.0117   11.5257    9.7317 B       1  LIG1        0.0000
      6 B           0.2228   11.2279    9.3568 B       1  LIG1        0.0000
      7 B           0.6529    9.4998    8.7115 B       1  LIG1        0.0000
      8 C          -0.0034    9.7795   10.3069 C.3     1  LIG1        0.0000
      9 H          -0.8541    9.5725   10.4198 H       1  LIG1        0.0000
     10 B           0.8264   11.1635   11.0589 B       1  LIG1        0.0000
     11 B           1.4307    8.7458   10.1613 B       1  LIG1        0.0000
     12 B           2.3367   10.1455   10.8966 B       1  LIG1        0.0000
     13 B           0.9328    9.5385   11.6069 B       1  LIG1        0.0000
     14 C          -0.1156    8.6358    7.6584 C.3     1  LIG1        0.0000
     15 H          -0.9412    9.0961    7.3994 H       1  LIG1        0.0000
     16 H          -0.3363    7.7641    8.0495 H       1  LIG1        0.0000
     17 H           0.4488    8.5059    6.8676 H       1  LIG1        0.0000
     18 C          -0.9761   12.1619    8.9640 C.3     1  LIG1        0.0000
     19 H          -0.6486   13.0769    8.8370 H       1  LIG1        0.0000
     20 H          -1.6462   12.1511    9.6781 H       1  LIG1        0.0000
     21 H          -1.3804   11.8411    8.1316 H       1  LIG1        0.0000
     22 C           2.8282   12.8681    9.7109 C.3     1  LIG1        0.0000
     23 H           3.5816   12.7819    9.0910 H       1  LIG1        0.0000
     24 H           3.1654   13.0593   10.6107 H       1  LIG1        0.0000
     25 H           2.2463   13.5994    9.4177 H       1  LIG1        0.0000
     26 C           3.7436    9.2910    8.3775 C.3     1  LIG1        0.0000
     27 H           3.5067    8.9296    7.4972 H       1  LIG1        0.0000
     28 H           4.1594    8.5871    8.9175 H       1  LIG1        0.0000
     29 H           4.3740   10.0327    8.2673 H       1  LIG1        0.0000
     30 C           0.2784   12.2499   12.0773 C.3     1  LIG1        0.0000
     31 H           0.1235   13.0932   11.6033 H       1  LIG1        0.0000
     32 H           0.9369   12.3907   12.7900 H       1  LIG1        0.0000
     33 H          -0.5627   11.9345   12.4680 H       1  LIG1        0.0000
     34 C           1.5596    7.1705   10.2042 C.3     1  LIG1        0.0000
     35 H           1.6605    6.8261    9.2930 H       1  LIG1        0.0000
     36 H           0.7541    6.7882   10.6107 H       1  LIG1        0.0000
     37 H           2.3444    6.9209   10.7354 H       1  LIG1        0.0000
     38 C           0.5387    8.9214   12.9869 C.3     1  LIG1        0.0000
     39 H           0.2051    8.0105   12.8547 H       1  LIG1        0.0000
     40 H          -0.1613    9.4683   13.4007 H       1  LIG1        0.0000
     41 H           1.3252    8.9011   13.5711 H       1  LIG1        0.0000
@<TRIPOS>BOND
     1    17    14    1
     2    15    14    1
     3    27    26    1
     4     2     3    1
     5    14    16    1
     6    14     7    1
     7    21    18    1
     8    29    26    1
     9    26    28    1
    10    26     4    1
    11     3     7    1
    12     3     6    1
    13     3     5    1
    14     7    11    1
    15     7     8    1
    16    19    18    1
    17    18     6    1
    18    18    20    1
    19    23    22    1
    20     4    11    1
    21     4    12    1
    22    35    34    1
    23     6     8    1
    24     6    10    1
    25    25    22    1
    26    22     5    1
    27    22    24    1
    28     5    12    1
    29     5    10    1
    30    11    34    1
    31    34    36    1
    32    34    37    1
    33     8     9    1
    34     8    13    1
    35    12    13    1
    36    12     1    1
    37    10    13    1
    38    10    30    1
    39    31    30    1
    40    13    38    1
    41    30    33    1
    42    30    32    1
    43    39    38    1
    44    38    40    1
    45    38    41    1
