@<TRIPOS>MOLECULE
C17 H12 F3 N O2 S
 36 37 0 0 0
SMALL
GASTEIGER

@<TRIPOS>ATOM
      1 S           5.6155    5.1378    7.5015 S.3     1  LIG1       -0.0889
      2 F           5.5973    3.3046   10.1253 F       1  LIG1       -0.1659
      3 F           5.8286    1.9426    8.4818 F       1  LIG1       -0.1659
      4 F           4.3927    1.5269   10.0349 F       1  LIG1       -0.1659
      5 O           3.6249   10.0248   11.5564 O.2     1  LIG1       -0.1261
      6 O           1.7456    9.5758   10.5758 O.2     1  LIG1       -0.1261
      7 N           2.9391    9.3707   10.7744 N.pl3   1  LIG1        0.0564
      8 C           2.5591    1.5889    6.1390 C.ar    1  LIG1       -0.0546
      9 H           3.2230    1.2343    6.6851 H       1  LIG1        0.0623
     10 C           1.4544    0.8161    5.8005 C.ar    1  LIG1       -0.0612
     11 H           1.3798   -0.0516    6.1268 H       1  LIG1        0.0618
     12 C           0.4609    1.3317    4.9783 C.ar    1  LIG1       -0.0617
     13 H          -0.2900    0.8211    4.7770 H       1  LIG1        0.0618
     14 C           0.5930    2.6122    4.4575 C.ar    1  LIG1       -0.0612
     15 H          -0.0590    2.9527    3.8883 H       1  LIG1        0.0618
     16 C           1.6993    3.3839    4.7872 C.ar    1  LIG1       -0.0546
     17 H           1.7921    4.2342    4.4224 H       1  LIG1        0.0623
     18 C           2.6746    2.8955    5.6622 C.ar    1  LIG1       -0.0240
     19 C           3.7558    3.8151    6.0530 C.2     1  LIG1       -0.0403
     20 H           4.0983    4.3602    5.3817 H       1  LIG1        0.0635
     21 C           4.3027    3.9539    7.2733 C.2     1  LIG1        0.0243
     22 C           3.8640    3.2574    8.5125 C.2     1  LIG1        0.0615
     23 C           2.6355    3.3396    9.0014 C.2     1  LIG1       -0.0860
     24 H           1.9945    3.8534    8.5652 H       1  LIG1        0.0541
     25 H           2.4134    2.8832    9.7808 H       1  LIG1        0.0541
     26 C           4.9191    2.5054    9.2811 C.3     1  LIG1        0.4179
     27 C           3.5893    8.2908   10.0299 C.ar    1  LIG1        0.1263
     28 C           4.8757    7.9083   10.3516 C.ar    1  LIG1       -0.0304
     29 H           5.3356    8.3192   11.0475 H       1  LIG1        0.0641
     30 C           5.4638    6.8950    9.6102 C.ar    1  LIG1       -0.0458
     31 H           6.3185    6.5997    9.8272 H       1  LIG1        0.0629
     32 C           4.7778    6.3143    8.5367 C.ar    1  LIG1        0.0129
     33 C           3.4738    6.7144    8.2445 C.ar    1  LIG1       -0.0458
     34 H           3.0119    6.3193    7.5406 H       1  LIG1        0.0629
     35 C           2.8713    7.6967    9.0011 C.ar    1  LIG1       -0.0304
     36 H           1.9962    7.9576    8.8246 H       1  LIG1        0.0641
@<TRIPOS>BOND
     1    15    14    1
     2    17    16    1
     3    14    16   ar
     4    14    12   ar
     5    13    12    1
     6    16    18   ar
     7    12    10   ar
     8    20    19    1
     9    18    19    1
    10    18     8   ar
    11    10    11    1
    12    10     8   ar
    13    19    21    2
    14     8     9    1
    15    21     1    1
    16    21    22    1
    17     1    32    1
    18    34    33    1
    19    33    32   ar
    20    33    35   ar
    21     3    26    1
    22    22    23    2
    23    22    26    1
    24    32    30   ar
    25    24    23    1
    26    36    35    1
    27    35    27   ar
    28    23    25    1
    29    26     4    1
    30    26     2    1
    31    30    31    1
    32    30    28   ar
    33    27    28   ar
    34    27     7    1
    35    28    29    1
    36     6     7    2
    37     7     5    2
