@<TRIPOS>MOLECULE
7231470.cif
 34 32 0 0 0
SMALL
GASTEIGER

@<TRIPOS>ATOM
      1 BR          4.6251   11.3410    2.3870 Br      1  LIG1       -0.0534
      2 BR          3.8153    9.9967   -0.5887 Br      1  LIG1       -0.0751
      3 BR          2.1139    6.1992    8.3689 Br      2  LIG2       -0.0534
      4 BR          2.4627    7.6212   11.4042 Br      2  LIG2       -0.0751
      5 N           1.4474    3.5325   13.3675 N.ar    3  LIG3       -0.2632
      6 N           2.0076    7.3643    4.6001 N.ar    4  LIG4       -0.2632
      7 C           1.8704    2.4155   12.7990 C.ar    3  LIG3        0.0278
      8 H           2.3322    1.7973   13.3349 H       3  LIG3        0.0829
      9 C           1.6764    2.0996   11.4638 C.ar    3  LIG3       -0.0398
     10 H           1.9937    1.2859   11.1136 H       3  LIG3        0.0636
     11 C           1.0060    3.0004   10.6519 C.ar    3  LIG3       -0.0356
     12 C           0.5589    4.1816   11.2448 C.ar    3  LIG3       -0.0398
     13 H           0.0995    4.8237   10.7349 H       3  LIG3        0.0636
     14 C           0.7959    4.3968   12.5782 C.ar    3  LIG3        0.0278
     15 H           0.4826    5.1960   12.9603 H       3  LIG3        0.0829
     16 C           0.7832    2.7310    9.2698 C.3     3  LIG3        0.0298
     17 C           3.7201   13.7356    1.2222 C.2     1  LIG1       -0.0495
     18 H           3.9678   14.1136    2.0458 H       1  LIG1        0.0626
     19 C           3.8998   12.3856    0.9944 C.2     1  LIG1        0.0156
     20 C           3.5561   11.8308   -0.2243 C.3     1  LIG1        0.0999
     21 C           1.3410    6.2600    4.2177 C.ar    4  LIG4        0.0278
     22 H           1.1253    5.6317    4.8828 H       4  LIG4        0.0829
     23 C           0.9536    5.9794    2.9381 C.ar    4  LIG4       -0.0398
     24 H           0.4778    5.1912    2.7467 H       4  LIG4        0.0636
     25 C           1.2695    6.8678    1.9280 C.ar    4  LIG4       -0.0356
     26 C           1.9817    8.0340    2.2844 C.ar    4  LIG4       -0.0398
     27 H           2.2197    8.6699    1.6338 H       4  LIG4        0.0636
     28 C           2.3184    8.2152    3.6057 C.ar    4  LIG4        0.0278
     29 H           2.8004    8.9912    3.8306 H       4  LIG4        0.0829
     30 C           0.8627    6.6673    0.5650 C.3     4  LIG4        0.0298
     31 C           3.1915    8.6433    7.4322 C.2     2  LIG2       -0.0495
     32 H           3.0860    8.2503    6.5836 H       2  LIG2        0.0626
     33 C           2.8165    7.9490    8.5779 C.2     2  LIG2        0.0156
     34 C           2.9592    8.5319    9.8331 C.3     2  LIG2        0.0999
@<TRIPOS>BOND
     1     2    20    1
     2    20    19    1
     3    30    25    1
     4    19    17    2
     5    19     1    1
     6    17    18    1
     7    27    26    1
     8    25    26   ar
     9    25    23   ar
    10    26    28   ar
    11    24    23    1
    12    23    21   ar
    13    28    29    1
    14    28     6   ar
    15    21     6   ar
    16    21    22    1
    17    32    31    1
    18    31    33    2
    19     3    33    1
    20    33    34    1
    21    16    11    1
    22    34     4    1
    23    11    12   ar
    24    11     9   ar
    25    13    12    1
    26    10     9    1
    27    12    14   ar
    28     9     7   ar
    29    14    15    1
    30    14     5   ar
    31     7     8    1
    32     7     5   ar
