@<TRIPOS>MOLECULE
?
 46 47 0 0 0
SMALL
GASTEIGER

@<TRIPOS>ATOM
      1 C           8.1216    1.7286    5.2230 C.3     1  LIG1        0.1329
      2 H           8.6433    2.5307    5.5185 H       1  LIG1        0.0675
      3 O           7.4002    1.3009    6.3717 O.3     1  LIG1       -0.3837
      4 H           6.7920    0.5582    6.0853 H       1  LIG1        0.2101
      5 C           9.1193    0.6620    4.7723 C.3     1  LIG1        0.0716
      6 H           8.6247   -0.0364    4.3282 H       1  LIG1        0.0536
      7 H           9.6044    0.3009    5.5286 H       1  LIG1        0.0536
      8 N          10.1014    1.2371    3.8591 N.2     1  LIG1       -0.2881
      9 C          11.1298    0.5449    3.5611 C.2     1  LIG1        0.0329
     10 H          11.2591   -0.3938    3.9000 H       1  LIG1        0.0832
     11 C          12.1607    1.0618    2.6637 C.ar    1  LIG1        0.0343
     12 C          12.0802    2.3681    2.1378 C.ar    1  LIG1        0.1254
     13 O          11.0586    3.1969    2.4558 O.3     1  LIG1       -0.5061
     14 H          10.4755    2.7425    2.9968 H       1  LIG1        0.2922
     15 C          13.0749    2.8165    1.2705 C.ar    1  LIG1       -0.0193
     16 H          13.0042    3.6793    0.9541 H       1  LIG1        0.0654
     17 C          14.1464    2.0016    0.9566 C.ar    1  LIG1       -0.0554
     18 H          14.8524    2.3196    0.3740 H       1  LIG1        0.0621
     19 C          14.2656    0.7069    1.4867 C.ar    1  LIG1       -0.0496
     20 C          15.4412   -0.1753    1.1319 C.3     1  LIG1       -0.0397
     21 H          15.3543   -0.4775    0.2037 H       1  LIG1        0.0278
     22 H          15.4569   -0.9532    1.7279 H       1  LIG1        0.0278
     23 H          16.2733    0.3319    1.2346 H       1  LIG1        0.0278
     24 C          13.2608    0.2597    2.3306 C.ar    1  LIG1       -0.0467
     25 H          13.3105   -0.6559    2.7238 H       1  LIG1        0.0628
     26 C           7.1867    2.0951    4.0694 C.3     1  LIG1        0.1704
     27 H           6.6557    1.2699    3.8273 H       1  LIG1        0.1052
     28 H           7.6854    2.4603    3.3282 H       1  LIG1        0.1052
     29 N           6.2202    3.0950    4.4968 N.2     1  LIG1       -0.2441
     30 H           6.4094    3.9741    4.6245 H       1  LIG1        0.4451
     31 C           5.0404    2.7874    4.9459 C.2     1  LIG1        0.1753
     32 H           4.8073    1.8609    4.8491 H       1  LIG1        0.1378
     33 C           4.1782    3.7114    5.5979 C.ar    1  LIG1        0.0847
     34 C           4.6261    5.0390    5.9025 C.ar    1  LIG1        0.1917
     35 O           5.7449    5.4861    5.4501 O.3     1  LIG1       -0.2871
     36 C           3.7671    5.8023    6.7523 C.ar    1  LIG1       -0.0139
     37 H           4.0399    6.6675    7.0153 H       1  LIG1        0.0656
     38 C           2.5694    5.3072    7.1956 C.ar    1  LIG1       -0.0552
     39 H           2.0418    5.8563    7.7974 H       1  LIG1        0.0621
     40 C           2.1110    4.0106    6.8633 C.ar    1  LIG1       -0.0495
     41 C           0.7956    3.4748    7.3859 C.3     1  LIG1       -0.0397
     42 H           0.7595    2.5052    7.2465 H       1  LIG1        0.0278
     43 H           0.0555    3.9019    6.9067 H       1  LIG1        0.0278
     44 H           0.7208    3.6696    8.3434 H       1  LIG1        0.0278
     45 C           2.9309    3.2406    6.0787 C.ar    1  LIG1       -0.0423
     46 H           2.6910    2.3475    5.8992 H       1  LIG1        0.0629
@<TRIPOS>BOND
     1    21    20    1
     2    18    17    1
     3    16    15    1
     4    17    15   ar
     5    17    19   ar
     6    20    23    1
     7    20    19    1
     8    20    22    1
     9    15    12   ar
    10    19    24   ar
    11    12    13    1
    12    12    11   ar
    13    24    11   ar
    14    24    25    1
    15    13    14    1
    16    11     9    1
    17    28    26    1
    18     9     8    2
    19     9    10    1
    20    27    26    1
    21     8     5    1
    22    26    29    1
    23    26     1    1
    24     6     5    1
    25    29    30    1
    26    29    31    2
    27     5     1    1
    28     5     7    1
    29    32    31    1
    30    31    33    1
    31     1     2    1
    32     1     3    1
    33    35    34    1
    34    33    34   ar
    35    33    45   ar
    36    46    45    1
    37    34    36   ar
    38    45    40   ar
    39     4     3    1
    40    36    37    1
    41    36    38   ar
    42    40    38   ar
    43    40    41    1
    44    43    41    1
    45    38    39    1
    46    42    41    1
    47    41    44    1
