@<TRIPOS>MOLECULE
7231473.cif
 38 38 0 0 0
SMALL
GASTEIGER

@<TRIPOS>ATOM
      1 O          -0.0927    2.7906   13.3103 O.3     1  LIG1       -0.4788
      2 H           3.0163   11.6779   15.0554 H       2  LIG2        0.0832
      3 H          -0.7198    3.5446   13.3880 H       1  LIG1        0.2951
      4 C           0.6229    2.8771   12.2166 C.2     1  LIG1        0.3368
      5 O           0.5684    3.7704   11.3927 O.2     1  LIG1       -0.2480
      6 H           1.4695    9.7316   15.3117 H       2  LIG2        0.0597
      7 H           2.1452    1.6288   12.9936 H       1  LIG1        0.0743
      8 C           1.5843    1.7086   12.0563 C.3     1  LIG1        0.1878
      9 O           2.4567    1.9298   10.9740 O.3     1  LIG1       -0.3780
     10 H           2.2752    2.7966   10.5636 H       1  LIG1        0.2106
     11 H           0.1622    0.2519   12.7129 H       1  LIG1        0.0743
     12 C           0.8087    0.3921   11.8395 C.3     1  LIG1        0.1878
     13 C           1.7737   -0.7914   11.8210 C.2     1  LIG1        0.3368
     14 H           1.8758    9.0706   11.0598 H       2  LIG2        0.0597
     15 H          -0.6798    0.9907   10.7466 H       1  LIG1        0.2106
     16 O           0.0922    0.4010   10.6347 O.3     1  LIG1       -0.3780
     17 O           1.8835   -1.5570   10.8894 O.2     1  LIG1       -0.2480
     18 O           2.4676   -0.8711   12.9464 O.3     1  LIG1       -0.4788
     19 H           3.3730   11.0642   10.9967 H       2  LIG2        0.0832
     20 H           3.1022   -1.6166   12.8980 H       1  LIG1        0.2951
     21 O          -1.6736    4.6693   13.6875 O.3     2  LIG2       -0.0808
     22 C           1.5331    9.2096   13.2091 C.3     2  LIG2        0.0376
     23 C           2.0671    9.6123   11.9773 C.2     2  LIG2       -0.0531
     24 C           2.9148   10.7049   11.9093 C.2     2  LIG2        0.0332
     25 C           0.6695    8.0191   13.3376 C.3     2  LIG2        0.0376
     26 C           0.5337    7.3508   14.5645 C.2     2  LIG2       -0.0531
     27 C          -0.2726    6.2338   14.6696 C.2     2  LIG2        0.0332
     28 C          -0.8331    6.3861   12.3879 C.2     2  LIG2        0.0332
     29 C          -0.0392    7.5096   12.2444 C.2     2  LIG2       -0.0531
     30 C           1.8697    9.9698   14.3342 C.2     2  LIG2       -0.0531
     31 N          -0.9326    5.7707   13.5825 N.4     2  LIG2       -0.2027
     32 O           4.0571   12.4340   12.9506 O.3     2  LIG2       -0.0808
     33 H          -0.0055    7.9868   11.2749 H       2  LIG2        0.0597
     34 H          -1.4027    5.9351   11.5864 H       2  LIG2        0.0832
     35 H          -0.3999    5.6664   15.5821 H       2  LIG2        0.0832
     36 H           1.0724    7.6631   15.4499 H       2  LIG2        0.0597
     37 C           2.7210   11.0492   14.2249 C.2     2  LIG2        0.0332
     38 N           3.2380   11.3940   13.0267 N.4     2  LIG2       -0.2027
@<TRIPOS>BOND
     1    10     9    1
     2    16    15    1
     3    16    12    1
     4    17    13    2
     5     9     8    1
     6    19    24    1
     7    14    23    1
     8    33    29    1
     9     5     4    2
    10    34    28    1
    11    13    12    1
    12    13    18    1
    13    12     8    1
    14    12    11    1
    15    24    23    2
    16    24    38    1
    17    23    22    1
    18     8     4    1
    19     8     7    1
    20     4     1    1
    21    29    28    2
    22    29    25    1
    23    28    31    1
    24    20    18    1
    25    32    38    1
    26    38    37    1
    27    22    25    1
    28    22    30    1
    29     1     3    1
    30    25    26    1
    31    31    21    1
    32    31    27    1
    33    37    30    2
    34    37     2    1
    35    30     6    1
    36    26    27    2
    37    26    36    1
    38    27    35    1
