@<TRIPOS>MOLECULE
C6 F4 I2, C10 H8 N2
 16 15 0 0 0
SMALL
GASTEIGER

@<TRIPOS>ATOM
      1 C           1.1480    3.3959    2.7954 C.ar    1  LIG1        0.0281
      2 H           1.6503    4.0183    3.2705 H       1  LIG1        0.0830
      3 F           2.7604    1.3358   11.1441 F       2  LIG2       -0.1997
      4 I           1.9030    1.2919    5.8363 I       2  LIG2       -0.0667
      5 N           0.7205    2.3141    3.4451 N.ar    1  LIG1       -0.2632
      6 C           0.8928    3.6470    1.4745 C.ar    1  LIG1       -0.0359
      7 H           1.2226    4.4216    1.0790 H       1  LIG1        0.0639
      8 F           1.7795    2.3061    8.8755 F       2  LIG2       -0.2056
      9 C           0.1444    2.7523    0.7235 C.ar    1  LIG1       -0.0149
     10 C          -0.3201    1.6327    1.4057 C.ar    1  LIG1       -0.0359
     11 H          -0.8370    0.9989    0.9642 H       1  LIG1        0.0639
     12 C          -0.0123    1.4634    2.7425 C.ar    1  LIG1        0.0281
     13 H          -0.3396    0.7077    3.1751 H       1  LIG1        0.0830
     14 C           2.9978    0.6619   10.0092 C.2     2  LIG2        0.1932
     15 C           2.4806    1.1567    8.8260 C.2     2  LIG2        0.1577
     16 C           2.6793    0.5172    7.6252 C.3     2  LIG2        0.1211
@<TRIPOS>BOND
     1     9    10   ar
     2     9     6   ar
     3    11    10    1
     4     7     6    1
     5    10    12   ar
     6     6     1   ar
     7    12    13    1
     8    12     5   ar
     9     1     2    1
    10     1     5   ar
    11     4    16    1
    12    16    15    1
    13    15     8    1
    14    15    14    2
    15    14     3    1
