@<TRIPOS>MOLECULE
C21 H21 O P S3
 47 49 0 0 0
SMALL
GASTEIGER

@<TRIPOS>ATOM
      1 S           3.1535    0.4424    9.8249 S.3     1  LIG1       -0.1286
      2 S          -3.5163    8.7898    9.0462 S.3     1  LIG1       -0.1286
      3 S           0.7037    4.4464    0.5414 S.3     1  LIG1       -0.1286
      4 P          -1.3241    3.4163    6.4778 P.3     1  LIG1        0.1716
      5 O          -2.4535    2.4417    6.4327 O.2     1  LIG1       -0.3065
      6 C           0.0548    2.8077    7.4623 C.ar    1  LIG1        0.0200
      7 C           1.2188    2.3127    6.8670 C.ar    1  LIG1       -0.0497
      8 C           2.1516    1.6249    7.6212 C.ar    1  LIG1       -0.0476
      9 C           1.9532    1.4173    8.9884 C.ar    1  LIG1        0.0077
     10 C           0.8231    1.9599    9.6013 C.ar    1  LIG1       -0.0476
     11 C          -0.1182    2.6391    8.8366 C.ar    1  LIG1       -0.0497
     12 C           2.5527    0.3923   11.5190 C.3     1  LIG1       -0.0135
     13 C          -1.8331    4.9895    7.1839 C.ar    1  LIG1        0.0200
     14 C          -1.0208    5.7512    8.0221 C.ar    1  LIG1       -0.0497
     15 C          -1.4953    6.9201    8.6114 C.ar    1  LIG1       -0.0476
     16 C          -2.7939    7.3499    8.3444 C.ar    1  LIG1        0.0077
     17 C          -3.6025    6.6087    7.4793 C.ar    1  LIG1       -0.0476
     18 C          -3.1321    5.4386    6.9155 C.ar    1  LIG1       -0.0497
     19 C          -2.1800    9.5368    9.9876 C.3     1  LIG1       -0.0135
     20 C          -0.6912    3.7283    4.8216 C.ar    1  LIG1        0.0200
     21 C          -0.0869    4.9265    4.4329 C.ar    1  LIG1       -0.0497
     22 C           0.3320    5.1044    3.1243 C.ar    1  LIG1       -0.0476
     23 C           0.1560    4.0925    2.1735 C.ar    1  LIG1        0.0077
     24 C          -0.4304    2.8922    2.5597 C.ar    1  LIG1       -0.0476
     25 C          -0.8498    2.7170    3.8756 C.ar    1  LIG1       -0.0497
     26 C           0.3551    2.9242   -0.3445 C.3     1  LIG1       -0.0135
     27 H           1.3911    2.4229    5.9476 H       1  LIG1        0.0625
     28 H           2.9571    1.2960    7.1944 H       1  LIG1        0.0629
     29 H           0.6744    1.8503   10.5200 H       1  LIG1        0.0629
     30 H          -0.9253    2.9690    9.2605 H       1  LIG1        0.0625
     31 H           1.6110    0.0326   11.5443 H       1  LIG1        0.0344
     32 H           2.6149    1.2736   11.9146 H       1  LIG1        0.0344
     33 H           3.1297   -0.2303   11.9632 H       1  LIG1        0.0344
     34 H          -0.1346    5.4592    8.2158 H       1  LIG1        0.0625
     35 H          -0.9526    7.4073    9.1993 H       1  LIG1        0.0629
     36 H          -4.4890    6.9040    7.2731 H       1  LIG1        0.0629
     37 H          -3.6863    4.9437    6.3703 H       1  LIG1        0.0625
     38 H          -2.5752   10.3397   10.4083 H       1  LIG1        0.0344
     39 H          -1.8231    8.9255   10.7095 H       1  LIG1        0.0344
     40 H          -1.4510    9.8017    9.3878 H       1  LIG1        0.0344
     41 H           0.0474    5.6324    5.0593 H       1  LIG1        0.0625
     42 H           0.7021    5.9259    2.8474 H       1  LIG1        0.0629
     43 H          -0.5534    2.1988    1.9485 H       1  LIG1        0.0629
     44 H          -1.2685    1.9196    4.1244 H       1  LIG1        0.0625
     45 H           0.8359    2.1947    0.0777 H       1  LIG1        0.0344
     46 H           0.6390    3.0526   -1.2634 H       1  LIG1        0.0344
     47 H          -0.6021    2.7123   -0.3401 H       1  LIG1        0.0344
@<TRIPOS>BOND
     1    46    26    1
     2    26    47    1
     3    26    45    1
     4    26     3    1
     5     3    23    1
     6    43    24    1
     7    23    24   ar
     8    23    22   ar
     9    24    25   ar
    10    42    22    1
    11    22    21   ar
    12    25    44    1
    13    25    20   ar
    14    21    20   ar
    15    21    41    1
    16    20     4    1
    17    27     7    1
    18    37    18    1
    19     5     4    2
    20     4    13    1
    21     4     6    1
    22     7     6   ar
    23     7     8   ar
    24    18    13   ar
    25    18    17   ar
    26    13    14   ar
    27    28     8    1
    28    36    17    1
    29     6    11   ar
    30    17    16   ar
    31     8     9   ar
    32    14    34    1
    33    14    15   ar
    34    16    15   ar
    35    16     2    1
    36    15    35    1
    37    11    30    1
    38    11    10   ar
    39     9    10   ar
    40     9     1    1
    41     2    19    1
    42    40    19    1
    43    10    29    1
    44     1    12    1
    45    19    38    1
    46    19    39    1
    47    12    31    1
    48    12    32    1
    49    12    33    1
