@<TRIPOS>MOLECULE
7232478.cif
 18 17 0 0 0
SMALL
GASTEIGER

@<TRIPOS>ATOM
      1 H           1.6133    4.4529    4.0179 H       1  LIG1        0.0441
      2 H           2.9333    8.1601    1.5654 H       1  LIG1        0.1512
      3 H           1.4263    8.4207    3.1095 H       1  LIG1        0.0815
      4 H           3.8899    6.1131    1.0802 H       1  LIG1        0.0786
      5 H           0.1929    5.8558    5.1087 H       1  LIG1        0.2917
      6 H           2.9062   10.1645    0.8987 H       0  HOH0        0.2052
      7 H           4.2985    9.9465    1.0749 H       0  HOH0        0.2052
      8 O           0.4189    6.6744    4.7058 O.2     1  LIG1       -0.5092
      9 O           4.3794    3.7192    1.3296 O.co2   1  LIG1       -0.2409
     10 N           2.6942    7.3392    2.0499 N.pl3   1  LIG1       -0.3233
     11 O           3.5401    9.5505    0.7695 O.3     2  HOH2       -0.4105
     12 O           3.0754    2.6870    2.8143 O.co2   1  LIG1       -0.2409
     13 C           1.8817    5.1794    3.4915 C.3     1  LIG1        0.0646
     14 C           1.7613    7.5181    2.9937 C.2     1  LIG1        0.0317
     15 C           3.2371    6.1446    1.7801 C.2     1  LIG1        0.0042
     16 C           1.3259    6.4412    3.7582 C.2     1  LIG1        0.1163
     17 C           3.4689    3.6985    2.1923 C.2     1  LIG1        0.3845
     18 C           2.8293    5.0355    2.4979 C.2     1  LIG1        0.0657
@<TRIPOS>BOND
     1    11     6    1
     2    11     7    1
     3     4    15    1
     4     9    17   ar
     5     2    10    1
     6    15    10    1
     7    15    18    2
     8    10    14    1
     9    17    18    1
    10    17    12   ar
    11    18    13    1
    12    14     3    1
    13    14    16    2
    14    13    16    1
    15    13     1    1
    16    16     8    1
    17     8     5    1
