@<TRIPOS>MOLECULE
(2S,3R)-2-amino-3-hydroxybutanoic acid
 34 32 0 0 0
SMALL
GASTEIGER

@<TRIPOS>ATOM
      1 C           3.7607    6.0334    3.8539 C.2     1  THR1        0.4051
      2 OXT         4.6873    5.2884    3.7935 O.co2   1  THR1       -0.2399
      3 O           2.5937    5.8343    3.4980 O.co2   1  THR1       -0.2399
      4 CA          4.1093    7.4807    4.2217 C.3     1  THR1        0.1045
      5 HA          3.4795    7.8425    4.8797 H       1  THR1        0.0996
      6 N           5.4761    7.4494    4.7585 N.4     1  THR1        0.2308
      7 H1          5.7234    8.2732    4.9865 H       1  THR1        0.2003
      8 H2          5.4992    6.9236    5.4768 H       1  THR1        0.2003
      9 H3          6.0303    7.1326    4.1397 H       1  THR1        0.2003
     10 CB          4.1201    8.3271    2.9371 C.3     1  THR1        0.1054
     11 HB          4.5014    7.8663    2.1627 H       1  THR1        0.0653
     12 CG2         2.7217    8.8892    2.6959 C.3     1  THR1       -0.0331
     13 HG21        2.1383    8.1943    2.3913 H       1  THR1        0.0257
     14 HG22        2.3784    9.2661    3.5101 H       1  THR1        0.0257
     15 HG23        2.7676    9.5828    2.0252 H       1  THR1        0.0257
     16 OG1         4.8903    9.4576    3.3834 O.3     1  THR1       -0.3859
     17 HG1         4.9032   10.0273    2.7924 H       1  THR1        0.2100
     18 C           2.9290    6.3639    0.7298 C.2     1  THR1        0.4051
     19 OXT         2.0598    7.1589    0.9529 O.co2   1  THR1       -0.2399
     20 O           4.0878    6.5379    0.3317 O.co2   1  THR1       -0.2399
     21 CA          2.5390    4.9204    1.0856 C.3     1  THR1        0.1045
     22 HA          3.1773    4.5435    1.7261 H       1  THR1        0.0996
     23 N           1.2010    4.9629    1.6706 N.4     1  THR1        0.2308
     24 H1          1.2154    5.4550    2.4094 H       1  THR1        0.2003
     25 H2          0.6333    5.3235    1.0844 H       1  THR1        0.2003
     26 H3          0.9355    4.1366    1.8660 H       1  THR1        0.2003
     27 CB          2.5080    4.0690   -0.1930 C.3     1  THR1        0.1054
     28 HB          2.0953    4.5197   -0.9614 H       1  THR1        0.0653
     29 CG2         3.8973    3.5181   -0.4765 C.3     1  THR1       -0.0331
     30 HG21        4.4656    4.2167   -0.8009 H       1  THR1        0.0257
     31 HG22        4.2689    3.1525    0.3329 H       1  THR1        0.0257
     32 HG23        3.8384    2.8208   -1.1375 H       1  THR1        0.0257
     33 OG1         1.7664    2.9284    0.2774 O.3     1  THR1       -0.3859
     34 HG1         1.5442    2.4639   -0.3576 H       1  THR1        0.2100
@<TRIPOS>BOND
     1    32    29    1
     2    28    27    1
     3    30    29    1
     4    29    27    1
     5    29    31    1
     6    34    33    1
     7    27    33    1
     8    27    21    1
     9    20    18   ar
    10    18    19   ar
    11    18    21    1
    12    25    23    1
    13    21    23    1
    14    21    22    1
    15    23    26    1
    16    23    24    1
    17    15    12    1
    18    11    10    1
    19    13    12    1
    20    12    10    1
    21    12    14    1
    22    17    16    1
    23    10    16    1
    24    10     4    1
    25     3     1   ar
    26     2     1   ar
    27     1     4    1
    28     9     6    1
    29     4     6    1
    30     4     5    1
    31     6     7    1
    32     6     8    1
