@<TRIPOS>MOLECULE
C28 H32 B2 N2 O2
 66 70 0 0 0
SMALL
GASTEIGER

@<TRIPOS>ATOM
      1 C           2.4675    0.8147    5.2241 C.3     1  LIG1        0.0000
      2 H           2.0560    0.2012    4.5804 H       1  LIG1        0.0000
      3 H           1.8308    1.5250    5.4511 H       1  LIG1        0.0000
      4 H           2.7105    0.3227    6.0357 H       1  LIG1        0.0000
      5 C           6.0570    3.9156    3.3544 C.3     1  LIG1        0.0000
      6 H           6.9456    3.9347    3.7676 H       1  LIG1        0.0000
      7 H           5.5849    4.7502    3.5564 H       1  LIG1        0.0000
      8 H           6.1505    3.8199    2.3835 H       1  LIG1        0.0000
      9 C           4.7433    0.6299    4.2393 C.ar    1  LIG1        0.0000
     10 C           4.9279   -0.7437    4.2440 C.ar    1  LIG1        0.0000
     11 H           4.2485   -1.3288    4.5576 H       1  LIG1        0.0000
     12 C           6.1462   -1.2398    3.7727 C.ar    1  LIG1        0.0000
     13 H           6.2981   -2.1776    3.7648 H       1  LIG1        0.0000
     14 C           7.1367   -0.3853    3.3171 C.ar    1  LIG1        0.0000
     15 H           7.9567   -0.7497    3.0058 H       1  LIG1        0.0000
     16 C           6.9582    0.9954    3.3046 C.ar    1  LIG1        0.0000
     17 H           7.6414    1.5771    2.9932 H       1  LIG1        0.0000
     18 C           5.7481    1.4907    3.7620 C.ar    1  LIG1        0.0000
     19 C           2.4442    2.2352    0.7943 C.3     1  LIG1        0.0000
     20 C           1.0904    2.9444    0.4907 C.3     1  LIG1        0.0000
     21 C           3.4658    2.2784   -0.3274 C.3     1  LIG1        0.0000
     22 H           3.6216    3.2094   -0.5913 H       1  LIG1        0.0000
     23 H           3.1277    1.7734   -1.0963 H       1  LIG1        0.0000
     24 H           4.3065    1.8809   -0.0193 H       1  LIG1        0.0000
     25 C           2.3005    0.8199    1.3147 C.3     1  LIG1        0.0000
     26 H           3.1661    0.5046    1.6475 H       1  LIG1        0.0000
     27 H           1.9956    0.2351    0.5899 H       1  LIG1        0.0000
     28 H           1.6450    0.8055    2.0434 H       1  LIG1        0.0000
     29 C           1.2034    4.1132   -0.4561 C.3     1  LIG1        0.0000
     30 H           0.3520    4.5982   -0.4795 H       1  LIG1        0.0000
     31 H           1.4176    3.7861   -1.3547 H       1  LIG1        0.0000
     32 H           1.9136    4.7146   -0.1494 H       1  LIG1        0.0000
     33 C          -0.0185    2.0128    0.0327 C.3     1  LIG1        0.0000
     34 H          -0.1626    1.3187    0.7095 H       1  LIG1        0.0000
     35 H           0.2367    1.5935   -0.8157 H       1  LIG1        0.0000
     36 H          -0.8449    2.5245   -0.0915 H       1  LIG1        0.0000
     37 C           3.0715    4.0222    4.6974 C.2     1  LIG1        0.0000
     38 C           2.0185    4.3489    3.8979 C.2     1  LIG1        0.0000
     39 C           3.5035    4.7860    5.9074 C.ar    1  LIG1        0.0000
     40 C           3.4027    6.1775    5.9878 C.ar    1  LIG1        0.0000
     41 H           2.9714    6.6560    5.2897 H       1  LIG1        0.0000
     42 C           3.9218    6.8697    7.0680 C.ar    1  LIG1        0.0000
     43 H           3.8498    7.8164    7.1003 H       1  LIG1        0.0000
     44 C           4.5450    6.1933    8.1004 C.ar    1  LIG1        0.0000
     45 H           4.8912    6.6708    8.8450 H       1  LIG1        0.0000
     46 C           4.6606    4.8170    8.0411 C.ar    1  LIG1        0.0000
     47 H           5.0870    4.3455    8.7469 H       1  LIG1        0.0000
     48 C           4.1541    4.1248    6.9531 C.ar    1  LIG1        0.0000
     49 H           4.2515    3.1804    6.9168 H       1  LIG1        0.0000
     50 C           0.9861    5.3614    4.2576 C.ar    1  LIG1        0.0000
     51 C           0.5634    6.3204    3.3386 C.ar    1  LIG1        0.0000
     52 H           0.9473    6.3377    2.4696 H       1  LIG1        0.0000
     53 C          -0.4064    7.2468    3.6745 C.ar    1  LIG1        0.0000
     54 H          -0.6698    7.9044    3.0417 H       1  LIG1        0.0000
     55 C          -0.9930    7.2228    4.9230 C.ar    1  LIG1        0.0000
     56 H          -1.6592    7.8604    5.1503 H       1  LIG1        0.0000
     57 C          -0.6067    6.2650    5.8396 C.ar    1  LIG1        0.0000
     58 H          -1.0167    6.2346    6.6960 H       1  LIG1        0.0000
     59 C           0.3786    5.3489    5.5110 C.ar    1  LIG1        0.0000
     60 H           0.6455    4.7003    6.1519 H       1  LIG1        0.0000
     61 B           3.9735    2.7754    4.3785 B       1  LIG1        0.0000
     62 B           1.8856    3.6158    2.5215 B       1  LIG1        0.0000
     63 N           3.6582    1.4023    4.6394 N.pl3   1  LIG1        0.0000
     64 N           5.3058    2.7975    3.8788 N.pl3   1  LIG1        0.0000
     65 O           2.9618    3.0429    1.9008 O.3     1  LIG1        0.0000
     66 O           0.7276    3.4870    1.8058 O.3     1  LIG1        0.0000
@<TRIPOS>BOND
     1    31    29    1
     2    23    21    1
     3    35    33    1
     4    22    21    1
     5    30    29    1
     6    29    32    1
     7    29    20    1
     8    21    24    1
     9    21    19    1
    10    36    33    1
    11    33    20    1
    12    33    34    1
    13    20    19    1
    14    20    66    1
    15    27    25    1
    16    19    25    1
    17    19    65    1
    18    25    26    1
    19    25    28    1
    20    66    62    1
    21    65    62    1
    22     8     5    1
    23    52    51    1
    24    62    38    1
    25    17    16    1
    26    15    14    1
    27    54    53    1
    28    16    14   ar
    29    16    18   ar
    30    14    12   ar
    31    51    53   ar
    32    51    50   ar
    33     5     7    1
    34     5     6    1
    35     5    64    1
    36    53    55   ar
    37    18    64    1
    38    18     9   ar
    39    13    12    1
    40    12    10   ar
    41    64    61    1
    42    38    50    1
    43    38    37    2
    44     9    10   ar
    45     9    63    1
    46    10    11    1
    47    50    59   ar
    48    61    63    1
    49    61    37    1
    50     2     1    1
    51    63     1    1
    52    37    39    1
    53    55    56    1
    54    55    57   ar
    55     1     3    1
    56     1     4    1
    57    41    40    1
    58    59    57   ar
    59    59    60    1
    60    57    58    1
    61    39    40   ar
    62    39    48   ar
    63    40    42   ar
    64    49    48    1
    65    48    46   ar
    66    42    43    1
    67    42    44   ar
    68    46    44   ar
    69    46    47    1
    70    44    45    1
