@<TRIPOS>MOLECULE
N-(triphenylacetyl)-L-tyrosine
 59 62 0 0 0
SMALL
GASTEIGER

@<TRIPOS>ATOM
      1 C           2.0677    5.8070    9.7572 C.2     0  UNK0        0.2330
      2 O           0.8477    5.6534    9.9006 O.2     0  UNK0       -0.2741
      3 N           2.8244    6.3639   10.7097 N.am    1  TYR1       -0.3008
      4 H           3.6941    6.4072   10.5803 H       1  TYR1        0.1496
      5 CA          2.2838    6.9012   11.9499 C.3     1  TYR1        0.1242
      6 HA          1.3156    6.6630   12.0268 H       1  TYR1        0.0618
      7 C           2.4419    8.4048   11.9688 C.2     1  TYR1        0.3256
      8 O           3.2693    9.0039   11.3258 O.2     1  TYR1       -0.2489
      9 OXT         1.6246    8.9770   12.8652 O.3     1  TYR1       -0.4793
     10 HXT         1.9776    9.7784   13.1081 H       1  TYR1        0.2951
     11 CB          3.0478    6.3794   13.1826 C.3     1  TYR1        0.0012
     12 HB1         3.9837    6.6970   13.1323 H       1  TYR1        0.0337
     13 HB2         2.6423    6.7743   13.9958 H       1  TYR1        0.0337
     14 CG          3.0542    4.8851   13.3280 C.ar    1  TYR1       -0.0449
     15 CD2         4.2559    4.1890   13.4199 C.ar    1  TYR1       -0.0551
     16 HD2         5.0760    4.6665   13.3717 H       1  TYR1        0.0621
     17 CE2         4.2788    2.8071   13.5817 C.ar    1  TYR1       -0.0199
     18 HE2         5.1063    2.3451   13.6451 H       1  TYR1        0.0654
     19 CZ          3.0846    2.1131   13.6514 C.ar    1  TYR1        0.1169
     20 OH          3.0570    0.7457   13.7982 O.3     1  TYR1       -0.5068
     21 HH          3.8973    0.4527   13.9402 H       1  TYR1        0.2921
     22 CE1         1.8802    2.7823   13.5662 C.ar    1  TYR1       -0.0199
     23 HE1         1.0628    2.3007   13.6160 H       1  TYR1        0.0654
     24 CD1         1.8700    4.1580   13.4078 C.ar    1  TYR1       -0.0551
     25 HD1         1.0389    4.6149   13.3524 H       1  TYR1        0.0621
     26 C           2.8170    5.2801    8.4918 C.3     0  UNK0        0.1216
     27 C           3.0698    3.7703    8.7221 C.ar    0  UNK0       -0.0238
     28 C           3.0055    3.1639    9.9712 C.ar    0  UNK0       -0.0569
     29 H           2.8676    3.6991   10.7448 H       0  UNK0        0.0621
     30 C           3.1397    1.7923   10.1052 C.ar    0  UNK0       -0.0615
     31 H           3.0763    1.3943   10.9649 H       0  UNK0        0.0618
     32 C           3.3640    0.9993    8.9976 C.ar    0  UNK0       -0.0617
     33 H           3.4302    0.0557    9.0878 H       0  UNK0        0.0618
     34 C           3.4909    1.5933    7.7562 C.ar    0  UNK0       -0.0615
     35 H           3.6849    1.0612    6.9931 H       0  UNK0        0.0618
     36 C           3.3374    2.9515    7.6220 C.ar    0  UNK0       -0.0569
     37 H           3.4146    3.3444    6.7609 H       0  UNK0        0.0621
     38 C           4.1262    6.0617    8.2915 C.ar    0  UNK0       -0.0238
     39 C           4.0922    7.4581    8.2260 C.ar    0  UNK0       -0.0569
     40 H           3.2592    7.9046    8.3235 H       0  UNK0        0.0621
     41 C           5.2359    8.2026    8.0245 C.ar    0  UNK0       -0.0615
     42 H           5.1854    9.1514    7.9848 H       0  UNK0        0.0618
     43 C           6.4578    7.5674    7.8786 C.ar    0  UNK0       -0.0617
     44 H           7.2457    8.0727    7.7187 H       0  UNK0        0.0618
     45 C           6.5166    6.1968    7.9667 C.ar    0  UNK0       -0.0615
     46 H           7.3551    5.7575    7.8856 H       0  UNK0        0.0618
     47 C           5.3665    5.4471    8.1728 C.ar    0  UNK0       -0.0569
     48 H           5.4290    4.5014    8.2340 H       0  UNK0        0.0621
     49 C           1.8820    5.3925    7.2487 C.ar    0  UNK0       -0.0238
     50 C           0.7355    4.6025    7.1830 C.ar    0  UNK0       -0.0569
     51 H           0.5093    4.0467    7.9195 H       0  UNK0        0.0621
     52 C          -0.0809    4.6149    6.0628 C.ar    0  UNK0       -0.0615
     53 H          -0.8550    4.0652    6.0352 H       0  UNK0        0.0618
     54 C           0.2298    5.4275    4.9834 C.ar    0  UNK0       -0.0617
     55 H          -0.3448    5.4595    4.2283 H       0  UNK0        0.0618
     56 C           1.3772    6.1876    5.0137 C.ar    0  UNK0       -0.0615
     57 H           1.6099    6.7269    4.2670 H       0  UNK0        0.0618
     58 C           2.1955    6.1669    6.1385 C.ar    0  UNK0       -0.0569
     59 H           2.9862    6.6929    6.1465 H       0  UNK0        0.0621
@<TRIPOS>BOND
     1    55    54    1
     2    57    56    1
     3    54    56   ar
     4    54    52   ar
     5    56    58   ar
     6    53    52    1
     7    52    50   ar
     8    58    59    1
     9    58    49   ar
    10    37    36    1
    11    35    34    1
    12    50    49   ar
    13    50    51    1
    14    49    26    1
    15    36    34   ar
    16    36    27   ar
    17    44    43    1
    18    34    32   ar
    19    43    45   ar
    20    43    41   ar
    21    46    45    1
    22    45    47   ar
    23    42    41    1
    24    41    39   ar
    25    47    48    1
    26    47    38   ar
    27    39    38   ar
    28    39    40    1
    29    38    26    1
    30    26    27    1
    31    26     1    1
    32    27    28   ar
    33    32    33    1
    34    32    30   ar
    35     1     2    2
    36     1     3   am
    37    28    30   ar
    38    28    29    1
    39    30    31    1
    40     4     3    1
    41     3     5    1
    42     8     7    2
    43     5     7    1
    44     5     6    1
    45     5    11    1
    46     7     9    1
    47     9    10    1
    48    12    11    1
    49    11    14    1
    50    11    13    1
    51    14    24   ar
    52    14    15   ar
    53    25    24    1
    54    16    15    1
    55    24    22   ar
    56    15    17   ar
    57    22    23    1
    58    22    19   ar
    59    17    18    1
    60    17    19   ar
    61    19    20    1
    62    20    21    1
