@<TRIPOS>MOLECULE
Phenyl pyrazine-2-carboxylate (IIb)
 23 24 0 0 0
SMALL
GASTEIGER

@<TRIPOS>ATOM
      1 C           3.0103    1.4138   10.0553 C.ar    1  LIG1        0.1320
      2 C           3.8681    2.4784   10.1820 C.ar    1  LIG1       -0.0192
      3 H           3.9103    3.1511    9.5132 H       1  LIG1        0.0654
      4 C           4.6709    2.5479   11.3092 C.ar    1  LIG1       -0.0583
      5 H           5.2782    3.2711   11.4112 H       1  LIG1        0.0619
      6 C           4.5945    1.5775   12.2829 C.ar    1  LIG1       -0.0615
      7 H           5.1474    1.6319   13.0538 H       1  LIG1        0.0618
      8 C           3.7147    0.5270   12.1379 C.ar    1  LIG1       -0.0583
      9 H           3.6590   -0.1379   12.8136 H       1  LIG1        0.0619
     10 C           2.9096    0.4328   11.0142 C.ar    1  LIG1       -0.0192
     11 H           2.3030   -0.2915   10.9088 H       1  LIG1        0.0654
     12 C           2.4529    0.4479    7.9873 C.2     1  LIG1        0.3645
     13 C           1.5497    0.5314    6.7998 C.ar    1  LIG1        0.1660
     14 C           1.6317   -0.4743    5.8567 C.ar    1  LIG1        0.0600
     15 H           2.2410   -1.1885    6.0003 H       1  LIG1        0.0853
     16 C           0.0558    0.5494    4.6276 C.ar    1  LIG1        0.0457
     17 H          -0.4946    0.5982    3.8553 H       1  LIG1        0.0845
     18 C          -0.0426    1.5501    5.5741 C.ar    1  LIG1        0.0466
     19 H          -0.6615    2.2570    5.4344 H       1  LIG1        0.0845
     20 N           0.8866   -0.4776    4.7521 N.ar    1  LIG1       -0.2594
     21 N           0.7047    1.5545    6.6789 N.ar    1  LIG1       -0.2455
     22 O           3.3291   -0.3605    8.0812 O.2     1  LIG1       -0.2427
     23 O           2.1691    1.3811    8.9157 O.3     1  LIG1       -0.4213
@<TRIPOS>BOND
     1    17    16    1
     2    16    20   ar
     3    16    18   ar
     4    20    14   ar
     5    19    18    1
     6    18    21   ar
     7    14    15    1
     8    14    13   ar
     9    21    13   ar
    10    13    12    1
    11    12    22    2
    12    12    23    1
    13    23     1    1
    14     3     2    1
    15     1     2   ar
    16     1    10   ar
    17     2     4   ar
    18    11    10    1
    19    10     8   ar
    20     4     5    1
    21     4     6   ar
    22     8     6   ar
    23     8     9    1
    24     6     7    1
