@<TRIPOS>MOLECULE
C18 H38 N4 O2, H2 O
 65 63 0 0 0
SMALL
GASTEIGER

@<TRIPOS>ATOM
      1 O           4.3290    1.6213    5.4623 O.2     1  LIG1       -0.2741
      2 O           0.2156    4.4254   17.7401 O.2     1  LIG1       -0.2741
      3 N           2.2357    1.5721    6.2940 N.am    1  LIG1       -0.3140
      4 N           2.3399    4.8199   17.1270 N.am    1  LIG1       -0.3140
      5 C           2.5231    1.5721    3.8805 C.3     1  LIG1        0.0846
      6 H           1.5462    1.5756    3.9611 H       1  LIG1        0.0557
      7 C           3.1152    1.5949    5.2905 C.2     1  LIG1        0.2301
      8 C           2.0090    2.5275    8.5733 C.3     1  LIG1       -0.0374
      9 H           1.0437    2.4372    8.5432 H       1  LIG1        0.0280
     10 H           2.2377    3.4076    8.2338 H       1  LIG1        0.0280
     11 C           1.9688    4.4053   13.3399 C.3     1  LIG1       -0.0516
     12 H           0.9987    4.4149   13.3316 H       1  LIG1        0.0266
     13 H           2.2774    5.2745   13.0375 H       1  LIG1        0.0266
     14 C           1.4197    4.3694   17.9694 C.2     1  LIG1        0.2301
     15 C           2.4843    2.4026   10.0186 C.3     1  LIG1       -0.0516
     16 H           2.2270    1.5304   10.3558 H       1  LIG1        0.0266
     17 H           3.4529    2.4475   10.0311 H       1  LIG1        0.0266
     18 C           2.0254    5.2265   15.7607 C.3     1  LIG1        0.0116
     19 H           2.4785    6.0602   15.5590 H       1  LIG1        0.0462
     20 H           1.0704    5.3750   15.6797 H       1  LIG1        0.0462
     21 C           2.4693    3.3338   12.3790 C.3     1  LIG1       -0.0530
     22 H           2.2168    2.4639   12.7259 H       1  LIG1        0.0265
     23 H           3.4379    3.3686   12.3528 H       1  LIG1        0.0265
     24 C           1.9188    3.7601   19.2824 C.3     1  LIG1        0.0846
     25 H           2.8778    3.9431   19.3643 H       1  LIG1        0.0557
     26 N           2.9175    2.7378    3.0942 N.3     1  LIG1       -0.3197
     27 C           1.9377    3.4628   10.9534 C.3     1  LIG1       -0.0530
     28 H           0.9696    3.3994   10.9703 H       1  LIG1        0.0265
     29 H           2.1708    4.3390   10.6082 H       1  LIG1        0.0265
     30 C           2.4567    4.1657   14.7690 C.3     1  LIG1       -0.0374
     31 H           2.1253    3.3050   15.0696 H       1  LIG1        0.0280
     32 H           3.4258    4.1215   14.7624 H       1  LIG1        0.0280
     33 C           2.6389    1.4736    7.6926 C.3     1  LIG1        0.0116
     34 H           3.6036    1.5530    7.7488 H       1  LIG1        0.0462
     35 H           2.3952    0.5970    8.0297 H       1  LIG1        0.0462
     36 N           1.2322    4.3489   20.4380 N.3     1  LIG1       -0.3197
     37 C           2.4548    0.2246    1.7435 C.3     1  LIG1       -0.0608
     38 H           1.5012    0.3303    1.7227 H       1  LIG1        0.0233
     39 H           2.6917   -0.6175    1.3496 H       1  LIG1        0.0233
     40 H           2.8666    0.9355    1.2487 H       1  LIG1        0.0233
     41 C           2.9383    0.2642    3.1844 C.3     1  LIG1       -0.0230
     42 H           3.9176    0.2195    3.1798 H       1  LIG1        0.0315
     43 C           2.3675    1.6349   17.9850 C.3     1  LIG1       -0.0608
     44 H           1.9557    1.9982   17.1983 H       1  LIG1        0.0233
     45 H           2.2532    0.6811   17.9949 H       1  LIG1        0.0233
     46 H           3.3042    1.8443   17.9817 H       1  LIG1        0.0233
     47 C           2.2672    1.5707   20.4710 C.3     1  LIG1       -0.0608
     48 H           3.1801    1.8382   20.5998 H       1  LIG1        0.0233
     49 H           2.2246    0.6175   20.3715 H       1  LIG1        0.0233
     50 H           1.7454    1.8361   21.2318 H       1  LIG1        0.0233
     51 C           1.7158    2.2360   19.2229 C.3     1  LIG1       -0.0230
     52 H           0.7535    2.0556   19.1799 H       1  LIG1        0.0315
     53 C           2.4136   -0.9398    3.9459 C.3     1  LIG1       -0.0608
     54 H           2.8090   -0.9622    4.8213 H       1  LIG1        0.0233
     55 H           2.6408   -1.7418    3.4717 H       1  LIG1        0.0233
     56 H           1.4595   -0.8760    4.0269 H       1  LIG1        0.0233
     57 O           0.7801    3.5721    1.3171 O.3     2  HOH2       -0.4105
     58 H           1.4634    1.5551    6.1292 H       1  LIG1        0.1487
     59 H           3.1496    4.7391   17.2861 H       1  LIG1        0.1487
     60 H           3.8183    2.7121    2.8989 H       1  LIG1        0.1189
     61 H           2.8007    3.4815    3.5573 H       1  LIG1        0.1189
     62 H           0.4022    4.3698   20.2860 H       1  LIG1        0.1189
     63 H           1.4876    5.1842   20.5537 H       1  LIG1        0.1189
     64 H           0.9740    3.6723    0.5047 H       0  HOH0        0.2052
     65 H           1.3858    3.3461    1.6876 H       0  HOH0        0.2052
@<TRIPOS>BOND
     1    64    57    1
     2    40    37    1
     3    57    65    1
     4    39    37    1
     5    38    37    1
     6    37    41    1
     7    60    26    1
     8    26    61    1
     9    26     5    1
    10    42    41    1
    11    41     5    1
    12    41    53    1
    13    55    53    1
    14     5     6    1
    15     5     7    1
    16    53    56    1
    17    53    54    1
    18     7     1    2
    19     7     3   am
    20    58     3    1
    21     3    33    1
    22    33    34    1
    23    33    35    1
    24    33     8    1
    25    10     8    1
    26     9     8    1
    27     8    15    1
    28    15    17    1
    29    15    16    1
    30    15    27    1
    31    29    27    1
    32    27    28    1
    33    27    21    1
    34    23    21    1
    35    21    22    1
    36    21    11    1
    37    13    11    1
    38    12    11    1
    39    11    30    1
    40    32    30    1
    41    30    31    1
    42    30    18    1
    43    19    18    1
    44    20    18    1
    45    18     4    1
    46     4    59    1
    47     4    14   am
    48    44    43    1
    49     2    14    2
    50    14    24    1
    51    46    43    1
    52    43    45    1
    53    43    51    1
    54    52    51    1
    55    51    24    1
    56    51    47    1
    57    24    25    1
    58    24    36    1
    59    62    36    1
    60    49    47    1
    61    36    63    1
    62    47    48    1
    63    47    50    1
