@<TRIPOS>MOLECULE
7232669.cif
 41 42 0 0 0
SMALL
GASTEIGER

@<TRIPOS>ATOM
      1 O           1.0233    1.9998    8.4480 O.3     1  LIG1       -0.3920
      2 H           1.2004    1.8006    7.7036 H       1  LIG1        0.2098
      3 O           2.2665    1.4476   13.6512 O.2     1  LIG1       -0.2915
      4 O           1.5555    0.5513   10.7365 O.3     1  LIG1       -0.3943
      5 H           1.4692    0.8509    9.9774 H       1  LIG1        0.2094
      6 O           1.6870    5.7738   10.4322 O.3     1  LIG1       -0.3869
      7 H           1.5630    6.5538   10.6539 H       1  LIG1        0.2102
      8 O           4.0650    2.6602   14.9831 O.3     1  LIG1       -0.5059
      9 H           3.6758    2.0109   14.6692 H       1  LIG1        0.2922
     10 O           4.5341    7.3242   14.2403 O.3     1  LIG1       -0.4950
     11 C           2.3996    4.9213   12.6122 C.ar    1  LIG1       -0.0014
     12 C           2.6878    3.7310   13.3065 C.ar    1  LIG1        0.0650
     13 C           4.3194    4.9492   14.6578 C.ar    1  LIG1        0.0222
     14 H           4.9577    4.9660   15.3343 H       1  LIG1        0.0691
     15 C           1.3396    4.9126   11.5133 C.3     1  LIG1        0.0847
     16 H           0.4970    5.2313   11.8985 H       1  LIG1        0.0647
     17 C           0.5338    1.0827   11.5764 C.3     1  LIG1        0.0544
     18 H           0.4277    0.5075   12.3500 H       1  LIG1        0.0564
     19 H          -0.3061    1.0867   11.0909 H       1  LIG1        0.0564
     20 C           0.8479    2.5017   12.0474 C.3     1  LIG1        0.0509
     21 H           0.0550    2.8124   12.5313 H       1  LIG1        0.0407
     22 C           3.6960    3.7693   14.3164 C.ar    1  LIG1        0.1311
     23 C           3.9812    6.1212   13.9781 C.ar    1  LIG1        0.1239
     24 C          -0.0575    3.5621    9.8900 C.3     1  LIG1       -0.0209
     25 H          -0.7274    2.9104   10.1506 H       1  LIG1        0.0294
     26 H          -0.4728    4.4377    9.9208 H       1  LIG1        0.0294
     27 C           1.9836    2.4890   13.0524 C.2     1  LIG1        0.1726
     28 C           0.3668    3.2769    8.4610 C.3     1  LIG1        0.0528
     29 H           0.9956    3.9677    8.1648 H       1  LIG1        0.0590
     30 C           1.0990    3.5239   10.9258 C.3     1  LIG1        0.0035
     31 H           1.9140    3.2546   10.4532 H       1  LIG1        0.0337
     32 C          -0.8429    3.2626    7.5304 C.3     1  LIG1       -0.0389
     33 H          -0.5546    3.0801    6.6338 H       1  LIG1        0.0254
     34 H          -1.2787    4.1174    7.5595 H       1  LIG1        0.0254
     35 H          -1.4564    2.5806    7.8136 H       1  LIG1        0.0254
     36 C           3.0319    6.0981   12.9456 C.ar    1  LIG1       -0.0134
     37 H           2.8293    6.8797   12.4843 H       1  LIG1        0.0658
     38 C           5.5428    7.4095   15.2550 C.3     1  LIG1        0.0788
     39 H           6.2899    6.8590   15.0107 H       1  LIG1        0.0660
     40 H           5.1812    7.1067   16.0918 H       1  LIG1        0.0660
     41 H           5.8317    8.3209   15.3424 H       1  LIG1        0.0660
@<TRIPOS>BOND
     1    33    32    1
     2    32    34    1
     3    32    35    1
     4    32    28    1
     5     2     1    1
     6    29    28    1
     7     1    28    1
     8    28    24    1
     9    24    26    1
    10    24    25    1
    11    24    30    1
    12     5     4    1
    13     6     7    1
    14     6    15    1
    15    31    30    1
    16     4    17    1
    17    30    15    1
    18    30    20    1
    19    19    17    1
    20    15    16    1
    21    15    11    1
    22    17    20    1
    23    17    18    1
    24    20    21    1
    25    20    27    1
    26    37    36    1
    27    11    36   ar
    28    11    12   ar
    29    36    23   ar
    30    27    12    1
    31    27     3    2
    32    12    22   ar
    33    23    10    1
    34    23    13   ar
    35    10    38    1
    36    22    13   ar
    37    22     8    1
    38    13    14    1
    39     9     8    1
    40    39    38    1
    41    38    41    1
    42    38    40    1
