@<TRIPOS>MOLECULE
N-(triphenylacetyl)-L-valine
 54 56 0 0 0
SMALL
GASTEIGER

@<TRIPOS>ATOM
      1 C           5.5180    7.2918   10.3703 C.2     0  UNK0        0.2330
      2 CA          6.1212    6.7069   12.6948 C.3     1  VAL1        0.1226
      3 HA          6.7719    7.4304   12.5800 H       1  VAL1        0.0617
      4 C           6.8621    5.4383   13.0695 C.2     1  VAL1        0.3255
      5 CB          5.1251    7.1055   13.8105 C.3     1  VAL1       -0.0179
      6 HB          5.6332    7.1873   14.6444 H       1  VAL1        0.0319
      7 CG1         4.5135    8.4629   13.5109 C.3     1  VAL1       -0.0605
      8 HG11        3.9962    8.4101   12.7041 H       1  VAL1        0.0233
      9 HG12        5.2118    9.1126   13.4020 H       1  VAL1        0.0233
     10 HG13        3.9441    8.7250   14.2391 H       1  VAL1        0.0233
     11 CG2         4.0509    6.0432   14.0264 C.3     1  VAL1       -0.0605
     12 HG21        3.4239    6.3511   14.6849 H       1  VAL1        0.0233
     13 HG22        4.4619    5.2310   14.3316 H       1  VAL1        0.0233
     14 HG23        3.5920    5.8788   13.1993 H       1  VAL1        0.0233
     15 C           4.8807    6.7751    9.0303 C.3     0  UNK0        0.1216
     16 C           3.3960    7.2301    9.0259 C.ar    0  UNK0       -0.0238
     17 C           2.6060    7.1155   10.1514 C.ar    0  UNK0       -0.0569
     18 H           2.9864    6.8096   10.9425 H       0  UNK0        0.0621
     19 C           1.2601    7.4474   10.1306 C.ar    0  UNK0       -0.0615
     20 H           0.7471    7.3676   10.9019 H       0  UNK0        0.0618
     21 C           0.6856    7.8958    8.9604 C.ar    0  UNK0       -0.0617
     22 H          -0.2146    8.1260    8.9401 H       0  UNK0        0.0618
     23 C           1.4419    7.9985    7.8358 C.ar    0  UNK0       -0.0615
     24 H           1.0522    8.2925    7.0442 H       0  UNK0        0.0618
     25 C           2.7937    7.6676    7.8586 C.ar    0  UNK0       -0.0569
     26 H           3.2986    7.7424    7.0809 H       0  UNK0        0.0621
     27 C           4.9667    5.2420    8.9499 C.ar    0  UNK0       -0.0238
     28 C           6.1710    4.5982    9.2584 C.ar    0  UNK0       -0.0569
     29 H           6.9133    5.1054    9.4961 H       0  UNK0        0.0621
     30 C           6.2743    3.2219    9.2162 C.ar    0  UNK0       -0.0615
     31 H           7.0710    2.8034    9.4505 H       0  UNK0        0.0618
     32 C           5.1838    2.4725    8.8224 C.ar    0  UNK0       -0.0617
     33 H           5.2435    1.5447    8.7970 H       0  UNK0        0.0618
     34 C           4.0109    3.0914    8.4677 C.ar    0  UNK0       -0.0615
     35 H           3.2905    2.5821    8.1739 H       0  UNK0        0.0618
     36 C           3.8928    4.4646    8.5421 C.ar    0  UNK0       -0.0569
     37 H           3.0875    4.8722    8.3170 H       0  UNK0        0.0621
     38 C           5.6362    7.4185    7.8455 C.ar    0  UNK0       -0.0238
     39 C           5.6648    8.7987    7.7130 C.ar    0  UNK0       -0.0569
     40 H           5.2373    9.3249    8.3500 H       0  UNK0        0.0621
     41 C           6.3161    9.4126    6.6516 C.ar    0  UNK0       -0.0615
     42 H           6.3285   10.3404    6.5870 H       0  UNK0        0.0618
     43 C           6.9379    8.6502    5.7043 C.ar    0  UNK0       -0.0617
     44 H           7.3811    9.0578    4.9950 H       0  UNK0        0.0618
     45 C           6.9066    7.2889    5.7980 C.ar    0  UNK0       -0.0615
     46 H           7.3241    6.7727    5.1483 H       0  UNK0        0.0618
     47 C           6.2540    6.6671    6.8644 C.ar    0  UNK0       -0.0569
     48 H           6.2343    5.7382    6.9138 H       0  UNK0        0.0621
     49 N           5.4693    6.4547   11.4143 N.am    1  VAL1       -0.3009
     50 H           5.0262    5.7233   11.3249 H       1  VAL1        0.1496
     51 O           5.9815    8.4139   10.4533 O.2     0  UNK0       -0.2741
     52 O           6.7139    4.3883   12.5054 O.2     1  VAL1       -0.2489
     53 OXT         7.6453    5.6001   14.1108 O.3     1  VAL1       -0.4793
     54 HXT         8.0555    4.9051   14.2543 H       1  VAL1        0.2951
@<TRIPOS>BOND
     1    44    43    1
     2    46    45    1
     3    43    45   ar
     4    43    41   ar
     5    45    47   ar
     6    42    41    1
     7    41    39   ar
     8    47    48    1
     9    47    38   ar
    10    24    23    1
    11    26    25    1
    12    39    38   ar
    13    39    40    1
    14    23    25   ar
    15    23    21   ar
    16    38    15    1
    17    25    16   ar
    18    35    34    1
    19    37    36    1
    20    34    36   ar
    21    34    32   ar
    22    36    27   ar
    23    33    32    1
    24    32    30   ar
    25    22    21    1
    26    27    15    1
    27    27    28   ar
    28    21    19   ar
    29    16    15    1
    30    16    17   ar
    31    15     1    1
    32    30    28   ar
    33    30    31    1
    34    28    29    1
    35    19    17   ar
    36    19    20    1
    37    17    18    1
    38     1    51    2
    39     1    49   am
    40    50    49    1
    41    49     2    1
    42    52     4    2
    43     3     2    1
    44     2     4    1
    45     2     5    1
    46     8     7    1
    47     4    53    1
    48    14    11    1
    49     9     7    1
    50     7     5    1
    51     7    10    1
    52     5    11    1
    53     5     6    1
    54    11    13    1
    55    11    12    1
    56    53    54    1
