@<TRIPOS>MOLECULE
C13 H9 N3 O2, C3 H7 N O
 39 39 0 0 0
SMALL
GASTEIGER

@<TRIPOS>ATOM
      1 O           0.8943    2.0677    3.3410 O.3     1  LIG1       -0.5047
      2 O           2.9167    8.3048    0.7663 O.2     2  LIG2       -0.2793
      3 O           2.3907    5.7825    0.9168 O.3     1  LIG1       -0.5066
      4 N           0.4109    2.4987    5.8446 N.pl3   1  LIG1       -0.1280
      5 N           0.6971    3.7389    5.7657 N.pl3   1  LIG1       -0.1256
      6 N           3.8028    9.5794   -0.8903 N.am    2  LIG2       -0.3101
      7 N          -0.0290   -0.8886    5.2271 N.1     1  LIG1       -0.1908
      8 C           1.1083    4.1819    4.5142 C.ar    1  LIG1        0.1139
      9 C           1.6380    3.9494    2.1533 C.ar    1  LIG1        0.0233
     10 H           1.6956    3.4184    1.3676 H       1  LIG1        0.0691
     11 C           1.9846    5.2925    2.1056 C.ar    1  LIG1        0.1204
     12 C           1.2086    3.3787    3.3386 C.ar    1  LIG1        0.1447
     13 C           1.4763    5.5342    4.4327 C.ar    1  LIG1       -0.0302
     14 H           1.4186    6.0758    5.2111 H       1  LIG1        0.0639
     15 C           3.2682    8.4717   -0.4159 C.2     2  LIG2        0.2020
     16 H           3.1425    7.7490   -1.0195 H       2  LIG2        0.1253
     17 C          -0.3228    0.7019    7.2466 C.ar    1  LIG1        0.0762
     18 C          -0.7684    0.1725    8.4567 C.ar    1  LIG1       -0.0424
     19 H          -0.9717   -0.7525    8.5317 H       1  LIG1        0.0631
     20 C          -0.9111    1.0114    9.5460 C.ar    1  LIG1       -0.0604
     21 H          -1.2142    0.6599   10.3752 H       1  LIG1        0.0618
     22 C          -0.0186    2.0683    7.1213 C.ar    1  LIG1        0.0897
     23 C          -0.1545   -0.1696    6.1099 C.1     1  LIG1        0.1011
     24 C          -0.1682    2.8963    8.2381 C.ar    1  LIG1       -0.0359
     25 H           0.0362    3.8214    8.1732 H       1  LIG1        0.0638
     26 C          -0.6135    2.3695    9.4373 C.ar    1  LIG1       -0.0598
     27 H          -0.7174    2.9366   10.1927 H       1  LIG1        0.0618
     28 C           4.2145    9.6921   -2.2847 C.3     2  LIG2        0.0026
     29 H           5.1828    9.8386   -2.3285 H       2  LIG2        0.0428
     30 H           3.7508   10.4480   -2.7027 H       2  LIG2        0.0428
     31 H           3.9878    8.8656   -2.7600 H       2  LIG2        0.0428
     32 C           1.9176    6.0953    3.2596 C.ar    1  LIG1       -0.0181
     33 H           2.1731    7.0094    3.2281 H       1  LIG1        0.0655
     34 C           4.0058   10.7265   -0.0193 C.3     2  LIG2        0.0026
     35 H           3.2213   11.3120   -0.0626 H       2  LIG2        0.0428
     36 H           4.7992   11.2223   -0.3116 H       2  LIG2        0.0428
     37 H           4.1341   10.4184    0.9022 H       2  LIG2        0.0428
     38 H           0.6461    1.9042    4.1537 H       1  LIG1        0.2922
     39 H           2.5643    6.6797    1.0091 H       1  LIG1        0.2921
@<TRIPOS>BOND
     1    31    28    1
     2    30    28    1
     3    29    28    1
     4    28     6    1
     5    16    15    1
     6     6    15   am
     7     6    34    1
     8    15     2    2
     9    36    34    1
    10    35    34    1
    11    34    37    1
    12     3    39    1
    13     3    11    1
    14    10     9    1
    15    11     9   ar
    16    11    32   ar
    17     9    12   ar
    18    33    32    1
    19    32    13   ar
    20    12     1    1
    21    12     8   ar
    22     1    38    1
    23    13     8   ar
    24    13    14    1
    25     8     5    1
    26     7    23    3
    27     5     4    1
    28     4    22    1
    29    23    17    1
    30    22    17   ar
    31    22    24   ar
    32    17    18   ar
    33    25    24    1
    34    24    26   ar
    35    18    19    1
    36    18    20   ar
    37    26    20   ar
    38    26    27    1
    39    20    21    1
