@<TRIPOS>MOLECULE
?
 44 48 0 0 0
SMALL
GASTEIGER

@<TRIPOS>ATOM
      1 C          -0.5660    3.1732   -0.9823 C.ar    1  LIG1       -0.0614
      2 H          -0.2888    3.8958   -1.4977 H       1  LIG1        0.0618
      3 C           0.1165    2.8743    0.1796 C.ar    1  LIG1       -0.0554
      4 H           0.8373    3.3918    0.4563 H       1  LIG1        0.0621
      5 C          -0.3054    1.7743    0.9292 C.ar    1  LIG1       -0.0038
      6 C           0.2037    1.1387    2.1369 C.3     1  LIG1        0.1304
      7 C           1.2895    1.4454    2.8658 C.2     1  LIG1        0.0288
      8 C           0.5908   -0.7235    4.3730 C.ar    1  LIG1        0.0374
      9 C           0.7533   -1.5960    5.4449 C.ar    1  LIG1       -0.0044
     10 H           1.4876   -1.5046    6.0075 H       1  LIG1        0.0666
     11 C          -0.1662   -2.5933    5.6773 C.ar    1  LIG1        0.1213
     12 C           0.9929   -3.4512    7.5698 C.3     1  LIG1        0.0788
     13 H           0.8871   -4.1170    8.2528 H       1  LIG1        0.0660
     14 H           1.0470   -2.5820    7.9747 H       1  LIG1        0.0660
     15 H           1.7972   -3.6244    7.0754 H       1  LIG1        0.0660
     16 C           2.1669    2.6201    2.5909 C.ar    1  LIG1       -0.0099
     17 C           3.1703    2.5164    1.6336 C.ar    1  LIG1       -0.0535
     18 H           3.2960    1.7110    1.1846 H       1  LIG1        0.0624
     19 C           3.9818    3.5925    1.3428 C.ar    1  LIG1       -0.0612
     20 H           4.6446    3.5178    0.6947 H       1  LIG1        0.0618
     21 C           3.8039    4.7788    2.0157 C.ar    1  LIG1       -0.0615
     22 H           4.3424    5.5103    1.8167 H       1  LIG1        0.0618
     23 C           2.8349    4.8805    2.9792 C.ar    1  LIG1       -0.0583
     24 H           2.7351    5.6837    3.4384 H       1  LIG1        0.0620
     25 C           1.9958    3.8145    3.2888 C.ar    1  LIG1       -0.0425
     26 C           0.9132    3.9901    4.3232 C.3     1  LIG1       -0.0391
     27 H           1.1461    3.5023    5.1154 H       1  LIG1        0.0278
     28 H           0.0818    3.6587    3.9753 H       1  LIG1        0.0278
     29 H           0.8225    4.9216    4.5363 H       1  LIG1        0.0278
     30 C          -1.6739   -0.0437    1.4422 C.2     1  LIG1        0.2523
     31 C          -1.4119    1.0472    0.5040 C.ar    1  LIG1        0.0429
     32 C          -2.1047    1.3552   -0.6607 C.ar    1  LIG1       -0.0493
     33 H          -2.8434    0.8583   -0.9282 H       1  LIG1        0.0625
     34 C          -1.6587    2.4182   -1.4009 C.ar    1  LIG1       -0.0610
     35 H          -2.0913    2.6385   -2.1935 H       1  LIG1        0.0618
     36 C          -0.5073   -0.8368    3.5189 C.ar    1  LIG1        0.0519
     37 C          -1.4351   -1.8382    3.7903 C.ar    1  LIG1       -0.0357
     38 H          -2.1871   -1.9210    3.2506 H       1  LIG1        0.0638
     39 C          -1.2613   -2.7060    4.8385 C.ar    1  LIG1       -0.0181
     40 H          -1.8868   -3.3788    4.9878 H       1  LIG1        0.0655
     41 N          -0.6658    0.0310    2.4076 N.am    1  LIG1       -0.2488
     42 O          -0.1097   -3.4938    6.6993 O.3     1  LIG1       -0.4951
     43 O          -2.5894   -0.8511    1.4077 O.2     1  LIG1       -0.2696
     44 S           1.8422    0.4917    4.2104 S.3     1  LIG1       -0.0886
@<TRIPOS>BOND
     1    35    34    1
     2     2     1    1
     3    34     1   ar
     4    34    32   ar
     5     1     3   ar
     6    33    32    1
     7    32    31   ar
     8     3     4    1
     9     3     5   ar
    10    31     5   ar
    11    31    30    1
    12    20    19    1
    13     5     6    1
    14    18    17    1
    15    19    17   ar
    16    19    21   ar
    17    43    30    2
    18    30    41   am
    19    17    16   ar
    20    22    21    1
    21    21    23   ar
    22     6    41    1
    23     6     7    1
    24    41    36    1
    25    16     7    1
    26    16    25   ar
    27     7    44    2
    28    23    25   ar
    29    23    24    1
    30    38    37    1
    31    25    26    1
    32    36    37   ar
    33    36     8   ar
    34    37    39   ar
    35    28    26    1
    36    44     8    1
    37    26    29    1
    38    26    27    1
    39     8     9   ar
    40    39    40    1
    41    39    11   ar
    42     9    11   ar
    43     9    10    1
    44    11    42    1
    45    42    12    1
    46    15    12    1
    47    12    14    1
    48    12    13    1
