@<TRIPOS>MOLECULE
1-hydroxypyrene
 54 60 0 0 0
SMALL
GASTEIGER

@<TRIPOS>ATOM
      1 O           8.9224    3.3144    7.1224 O.3     1  LIG1       -0.5062
      2 H           8.9280    4.0933    6.8659 H       1  LIG1        0.2922
      3 C           9.9566    3.1151    8.0169 C.ar    1  LIG1        0.1246
      4 C           9.7372    2.2239    9.0513 C.ar    1  LIG1        0.0247
      5 C           8.4476    1.5816    9.2362 C.ar    1  LIG1       -0.0499
      6 H           7.7489    1.7644    8.6499 H       1  LIG1        0.0625
      7 C           8.2616    0.7069   10.2722 C.ar    1  LIG1       -0.0533
      8 H           7.4296    0.3065   10.3789 H       1  LIG1        0.0624
      9 C           9.2944    0.3894   11.1900 C.ar    1  LIG1       -0.0167
     10 C           9.1249   -0.5063   12.2544 C.ar    1  LIG1       -0.0540
     11 H           8.3082   -0.9351   12.3710 H       1  LIG1        0.0624
     12 C          10.1674   -0.7578   13.1339 C.ar    1  LIG1       -0.0606
     13 H          10.0383   -1.3566   13.8335 H       1  LIG1        0.0618
     14 C          11.3821   -0.1439   12.9940 C.ar    1  LIG1       -0.0540
     15 H          12.0531   -0.3148   13.6169 H       1  LIG1        0.0624
     16 C          11.6348    0.7257   11.9479 C.ar    1  LIG1       -0.0167
     17 C          12.8842    1.3731   11.7264 C.ar    1  LIG1       -0.0534
     18 H          13.5857    1.2009   12.3127 H       1  LIG1        0.0624
     19 C          13.0938    2.2207   10.7070 C.ar    1  LIG1       -0.0534
     20 H          13.9328    2.6106   10.6070 H       1  LIG1        0.0624
     21 C          12.0569    2.5405    9.7692 C.ar    1  LIG1       -0.0165
     22 C          12.2263    3.4349    8.7315 C.ar    1  LIG1       -0.0505
     23 H          13.0472    3.8582    8.6216 H       1  LIG1        0.0625
     24 C          11.1935    3.7144    7.8470 C.ar    1  LIG1       -0.0190
     25 H          11.3310    4.3036    7.1408 H       1  LIG1        0.0654
     26 C          10.7839    1.9238    9.9441 C.ar    1  LIG1        0.0010
     27 C          10.5659    1.0272   11.0301 C.ar    1  LIG1       -0.0024
     28 O           5.1096    3.3208   11.0718 O.3     2  LIG2       -0.5062
     29 H           4.8379    3.8875   10.5454 H       2  LIG2        0.2922
     30 C           4.1525    3.0917   12.0329 C.ar    2  LIG2        0.1246
     31 C           4.4878    2.1685   13.0423 C.ar    2  LIG2        0.0247
     32 C           5.7885    1.5862   13.1639 C.ar    2  LIG2       -0.0499
     33 H           6.4514    1.8088   12.5509 H       2  LIG2        0.0625
     34 C           6.0614    0.7134   14.1633 C.ar    2  LIG2       -0.0533
     35 H           6.9141    0.3477   14.2182 H       2  LIG2        0.0624
     36 C           5.0946    0.3400   15.1210 C.ar    2  LIG2       -0.0167
     37 C           5.3606   -0.5787   16.1704 C.ar    2  LIG2       -0.0540
     38 H           6.2050   -0.9599   16.2520 H       2  LIG2        0.0624
     39 C           4.3731   -0.9040   17.0666 C.ar    2  LIG2       -0.0606
     40 H           4.5587   -1.5106   17.7462 H       2  LIG2        0.0618
     41 C           3.1127   -0.3532   16.9816 C.ar    2  LIG2       -0.0540
     42 H           2.4691   -0.5878   17.6112 H       2  LIG2        0.0624
     43 C           2.7829    0.5503   15.9689 C.ar    2  LIG2       -0.0167
     44 C           1.4906    1.1294   15.8323 C.ar    2  LIG2       -0.0534
     45 H           0.8221    0.8907   16.4336 H       2  LIG2        0.0624
     46 C           1.2136    2.0068   14.8662 C.ar    2  LIG2       -0.0534
     47 H           0.3580    2.3683   14.8179 H       2  LIG2        0.0624
     48 C           2.1955    2.4090   13.9001 C.ar    2  LIG2       -0.0165
     49 C           1.9351    3.3368   12.8924 C.ar    2  LIG2       -0.0505
     50 H           1.0962    3.7359   12.8441 H       2  LIG2        0.0625
     51 C           2.9060    3.6727   11.9629 C.ar    2  LIG2       -0.0190
     52 H           2.7162    4.2889   11.2916 H       2  LIG2        0.0654
     53 C           3.4948    1.8400   13.9984 C.ar    2  LIG2        0.0010
     54 C           3.7982    0.9108   15.0261 C.ar    2  LIG2       -0.0024
@<TRIPOS>BOND
     1     2     1    1
     2     1     3    1
     3    25    24    1
     4    24     3   ar
     5    24    22   ar
     6     3     4   ar
     7    23    22    1
     8     6     5    1
     9    22    21   ar
    10     4     5   ar
    11     4    26   ar
    12     5     7   ar
    13    21    26   ar
    14    21    19   ar
    15    26    27   ar
    16     7     8    1
    17     7     9   ar
    18    29    28    1
    19    20    19    1
    20    19    17   ar
    21    27     9   ar
    22    27    16   ar
    23    28    30    1
    24     9    10   ar
    25    52    51    1
    26    17    16   ar
    27    17    18    1
    28    16    14   ar
    29    51    30   ar
    30    51    49   ar
    31    30    31   ar
    32    10    11    1
    33    10    12   ar
    34    33    32    1
    35    50    49    1
    36    49    48   ar
    37    14    12   ar
    38    14    15    1
    39    31    32   ar
    40    31    53   ar
    41    12    13    1
    42    32    34   ar
    43    48    53   ar
    44    48    46   ar
    45    53    54   ar
    46    34    35    1
    47    34    36   ar
    48    47    46    1
    49    46    44   ar
    50    54    36   ar
    51    54    43   ar
    52    36    37   ar
    53    44    43   ar
    54    44    45    1
    55    43    41   ar
    56    37    38    1
    57    37    39   ar
    58    41    39   ar
    59    41    42    1
    60    39    40    1
