@<TRIPOS>MOLECULE
C18 H16 N2 O2
 38 40 0 0 0
SMALL
GASTEIGER

@<TRIPOS>ATOM
      1 O           5.5364    1.6283    5.6184 O.3     1  LIG1       -0.3113
      2 O           6.5209    3.1790    6.9094 O.2     1  LIG1       -0.2425
      3 N           9.8634    8.8888    6.0991 N.pl3   1  LIG1       -0.3360
      4 N           5.3439    1.3551    4.2122 N.2     1  LIG1       -0.0731
      5 C           5.9350    2.3450    2.0844 C.ar    1  LIG1        0.0044
      6 C           5.4135    3.4496    1.4167 C.ar    1  LIG1       -0.0524
      7 H           5.0520    4.1747    1.9122 H       1  LIG1        0.0624
      8 C           5.4231    3.4953    0.0328 C.ar    1  LIG1       -0.0611
      9 H           5.0336    4.2328   -0.4215 H       1  LIG1        0.0618
     10 C           5.9989    2.4623   -0.6878 C.ar    1  LIG1       -0.0617
     11 H           6.0328    2.5093   -1.6354 H       1  LIG1        0.0618
     12 C           6.5227    1.3707   -0.0391 C.ar    1  LIG1       -0.0611
     13 H           6.9113    0.6612   -0.5378 H       1  LIG1        0.0618
     14 C           6.4854    1.3081    1.3491 C.ar    1  LIG1       -0.0524
     15 H           6.8385    0.5484    1.7971 H       1  LIG1        0.0624
     16 C           5.9526    2.3143    3.5688 C.2     1  LIG1        0.1245
     17 C           6.5631    3.2879    4.4394 C.2     1  LIG1        0.0909
     18 C           6.2580    2.8040    5.7906 C.2     1  LIG1        0.3684
     19 C           7.3360    4.3273    3.9893 C.2     1  LIG1       -0.0383
     20 H           7.4520    4.3149    3.0458 H       1  LIG1        0.0632
     21 C           8.0057    5.4229    4.6116 C.ar    1  LIG1       -0.0241
     22 C           7.9640    5.7509    5.9882 C.ar    1  LIG1       -0.0528
     23 H           7.4791    5.1920    6.5830 H       1  LIG1        0.0624
     24 C           8.6066    6.8536    6.4805 C.ar    1  LIG1       -0.0401
     25 H           8.5810    7.0264    7.4134 H       1  LIG1        0.0636
     26 C           9.3112    7.7450    5.6321 C.ar    1  LIG1        0.0292
     27 C           9.3975    7.3922    4.2650 C.ar    1  LIG1       -0.0401
     28 H           9.9009    7.9393    3.6734 H       1  LIG1        0.0636
     29 C           8.7686    6.2758    3.7780 C.ar    1  LIG1       -0.0528
     30 H           8.8472    6.0691    2.8546 H       1  LIG1        0.0624
     31 C           9.8703    9.2148    7.5127 C.3     1  LIG1        0.0004
     32 H          10.4230    8.5647    7.9955 H       1  LIG1        0.0428
     33 H           8.9543    9.1868    7.8592 H       1  LIG1        0.0428
     34 H          10.2398   10.1141    7.6384 H       1  LIG1        0.0428
     35 C          10.6263    9.7704    5.2264 C.3     1  LIG1        0.0004
     36 H          10.1008    9.9713    4.4246 H       1  LIG1        0.0428
     37 H          11.4636    9.3289    4.9665 H       1  LIG1        0.0428
     38 H          10.8316   10.6031    5.7008 H       1  LIG1        0.0428
@<TRIPOS>BOND
     1    11    10    1
     2    10    12   ar
     3    10     8   ar
     4    13    12    1
     5     9     8    1
     6    12    14   ar
     7     8     6   ar
     8    14    15    1
     9    14     5   ar
    10     6     7    1
    11     6     5   ar
    12     5    16    1
    13    30    29    1
    14    20    19    1
    15    16     4    2
    16    16    17    1
    17    28    27    1
    18    29    27   ar
    19    29    21   ar
    20    19    17    2
    21    19    21    1
    22     4     1    1
    23    27    26   ar
    24    36    35    1
    25    17    18    1
    26    21    22   ar
    27    37    35    1
    28    35    38    1
    29    35     3    1
    30     1    18    1
    31    26     3    1
    32    26    24   ar
    33    18     2    2
    34    22    24   ar
    35    22    23    1
    36     3    31    1
    37    24    25    1
    38    31    34    1
    39    31    33    1
    40    31    32    1
