@<TRIPOS>MOLECULE
Phenyl-C61-butyric acid methyl ester'
 88 120 0 0 0
SMALL
GASTEIGER

@<TRIPOS>ATOM
      1 O          -1.6500    1.0495    8.2519 O.3     1  LIG1       -0.4679
      2 C          -0.8256    0.4488    9.2887 C.3     1  LIG1        0.0817
      3 H           0.0548    0.2301    8.9194 H       1  LIG1        0.0661
      4 H          -1.2563   -0.3694    9.6159 H       1  LIG1        0.0661
      5 H          -0.7207    1.0808   10.0305 H       1  LIG1        0.0661
      6 O          -0.2057    2.7753    8.1886 O.2     1  LIG1       -0.2509
      7 C          -1.2083    2.2349    7.7858 C.2     1  LIG1        0.3068
      8 C          -2.0990    2.7840    6.6977 C.3     1  LIG1        0.0450
      9 H          -2.5600    3.5967    7.0246 H       1  LIG1        0.0377
     10 H          -2.7881    2.1132    6.4627 H       1  LIG1        0.0377
     11 C          -1.2678    3.1271    5.4531 C.3     1  LIG1       -0.0421
     12 H          -1.8597    3.5059    4.7552 H       1  LIG1        0.0271
     13 H          -0.5918    3.8116    5.6862 H       1  LIG1        0.0271
     14 C          -0.5643    1.8802    4.9050 C.3     1  LIG1       -0.0405
     15 H          -0.0047    1.4865    5.6208 H       1  LIG1        0.0275
     16 H          -1.2486    1.2095    4.6552 H       1  LIG1        0.0275
     17 C           0.3189    2.1659    3.6872 C.3     1  LIG1        0.0254
     18 C          -0.4676    2.3292    2.4072 C.ar    1  LIG1       -0.0388
     19 C          -1.0141    3.5682    2.0550 C.ar    1  LIG1       -0.0580
     20 H          -0.7922    4.3430    2.5585 H       1  LIG1        0.0620
     21 C          -1.8837    3.6728    0.9663 C.ar    1  LIG1       -0.0615
     22 H          -2.2601    4.5155    0.7383 H       1  LIG1        0.0618
     23 C          -2.1988    2.5454    0.2148 C.ar    1  LIG1       -0.0617
     24 H          -2.7966    2.6143   -0.5201 H       1  LIG1        0.0618
     25 C          -1.6356    1.3167    0.5432 C.ar    1  LIG1       -0.0615
     26 H          -1.8390    0.5495    0.0218 H       1  LIG1        0.0618
     27 C          -0.7726    1.2068    1.6342 C.ar    1  LIG1       -0.0580
     28 H          -0.3919    0.3648    1.8530 H       1  LIG1        0.0620
     29 C           4.8929    0.7363    0.9876 C.ar    1  LIG1       -0.0000
     30 C           4.7612    3.1677    0.5932 C.ar    1  LIG1       -0.0000
     31 C           8.2518    4.3851    3.3652 C.ar    1  LIG1        0.0000
     32 C           4.6196   -0.3077    6.0705 C.ar    1  LIG1       -0.0000
     33 C           6.1291    5.2974    6.1072 C.ar    1  LIG1       -0.0000
     34 C           4.1123    1.8772    0.7503 C.ar    1  LIG1       -0.0003
     35 C           5.7902    1.8811    7.4794 C.ar    1  LIG1       -0.0000
     36 C           8.0655    2.4671    1.8095 C.ar    1  LIG1        0.0000
     37 C           2.8233    5.0286    3.6654 C.ar    1  LIG1       -0.0039
     38 C           3.7986    0.6656    6.6516 C.ar    1  LIG1       -0.0003
     39 C           1.5236    3.0526    3.9267 C.3     1  LIG1        0.0482
     40 C           2.7448    4.7350    5.0834 C.ar    1  LIG1       -0.0039
     41 C           3.5994    2.9703    7.1070 C.ar    1  LIG1       -0.0003
     42 C           6.4391    3.1762    7.3245 C.ar    1  LIG1       -0.0000
     43 C           2.7277    3.5151    1.7442 C.ar    1  LIG1       -0.0039
     44 C           8.1291    3.9090    5.6710 C.ar    1  LIG1        0.0000
     45 C           1.6606    1.4568    3.6130 C.3     1  LIG1        0.0482
     46 C           2.3060    0.6509    4.6941 C.ar    1  LIG1       -0.0181
     47 C           7.3293    5.1027    5.4120 C.ar    1  LIG1       -0.0000
     48 C           7.7710    0.0065    4.3881 C.ar    1  LIG1       -0.0000
     49 C           8.8211    2.1019    4.1351 C.ar    1  LIG1        0.0000
     50 C           8.4987    1.5916    2.8080 C.ar    1  LIG1        0.0000
     51 C           6.9661    2.0894    0.9361 C.ar    1  LIG1       -0.0000
     52 C           3.1889   -0.3105    4.0707 C.ar    1  LIG1       -0.0039
     53 C           2.1822    3.9535    2.9370 C.ar    1  LIG1       -0.0181
     54 C           6.1576    3.2708    0.6815 C.ar    1  LIG1       -0.0000
     55 C           4.3920    1.7815    7.3665 C.ar    1  LIG1       -0.0000
     56 C           3.9130    4.1734    1.2105 C.ar    1  LIG1       -0.0003
     57 C           3.7888    5.1217    5.9361 C.ar    1  LIG1       -0.0003
     58 C           5.5560   -1.0206    4.0271 C.ar    1  LIG1       -0.0000
     59 C           7.9361    3.8905    2.0961 C.ar    1  LIG1        0.0000
     60 C           2.0576    3.4804    5.2582 C.ar    1  LIG1       -0.0181
     61 C           6.8014   -0.0646    2.1208 C.ar    1  LIG1       -0.0000
     62 C           4.2218    4.2132    6.9728 C.ar    1  LIG1       -0.0000
     63 C           3.9418    5.6899    3.1437 C.ar    1  LIG1       -0.0003
     64 C           7.8141    1.5489    6.3218 C.ar    1  LIG1        0.0000
     65 C           6.6377    0.8772    6.8626 C.ar    1  LIG1       -0.0000
     66 C           5.0335    6.0718    4.0311 C.ar    1  LIG1       -0.0000
     67 C           4.3087   -0.8091    4.7521 C.ar    1  LIG1       -0.0003
     68 C           2.6209    1.1555    5.9450 C.ar    1  LIG1       -0.0039
     69 C           6.6464   -0.6423    4.9149 C.ar    1  LIG1       -0.0000
     70 C           2.4269    1.1241    2.3721 C.ar    1  LIG1       -0.0181
     71 C           5.9499    5.3584    1.9883 C.ar    1  LIG1       -0.0000
     72 C           2.4950    2.5994    6.2343 C.ar    1  LIG1       -0.0039
     73 C           4.9567    5.7965    5.3898 C.ar    1  LIG1       -0.0000
     74 C           5.6351   -0.7461    2.6669 C.ar    1  LIG1       -0.0000
     75 C           7.4077    5.3887    3.9869 C.ar    1  LIG1       -0.0000
     76 C           6.3459    0.8538    1.0903 C.ar    1  LIG1       -0.0000
     77 C           8.6982    3.4703    4.4070 C.ar    1  LIG1        0.0000
     78 C           4.4980    5.2527    1.8908 C.ar    1  LIG1       -0.0000
     79 C           6.2779    5.8704    3.3048 C.ar    1  LIG1       -0.0000
     80 C           2.8561    2.0717    1.4566 C.ar    1  LIG1       -0.0039
     81 C           3.2637   -0.0266    2.6527 C.ar    1  LIG1       -0.0039
     82 C           8.3666    1.1244    5.1114 C.ar    1  LIG1        0.0000
     83 C           6.7602    4.3882    1.3947 C.ar    1  LIG1       -0.0000
     84 C           5.6790    4.3213    7.0804 C.ar    1  LIG1       -0.0000
     85 C           6.0713   -0.1986    6.1749 C.ar    1  LIG1       -0.0000
     86 C           7.6916    2.9705    6.6076 C.ar    1  LIG1        0.0000
     87 C           4.4585   -0.2360    1.9557 C.ar    1  LIG1       -0.0003
     88 C           7.8546    0.3023    2.9673 C.ar    1  LIG1       -0.0000
@<TRIPOS>BOND
     1    24    23    1
     2    26    25    1
     3    23    25   ar
     4    23    21   ar
     5    25    27   ar
     6    30    54   ar
     7    30    34   ar
     8    30    56   ar
     9    54    51   ar
    10    54    83   ar
    11    22    21    1
    12    34    29   ar
    13    34    80   ar
    14    51    76   ar
    15    51    36   ar
    16    21    19   ar
    17    29    76   ar
    18    29    87   ar
    19    76    61   ar
    20    56    43   ar
    21    56    78   ar
    22    83    71   ar
    23    83    59   ar
    24    80    43   ar
    25    80    70   ar
    26    27    28    1
    27    27    18   ar
    28    43    53   ar
    29    36    59   ar
    30    36    50   ar
    31    78    71   ar
    32    78    63   ar
    33    87    81   ar
    34    87    74   ar
    35    71    79   ar
    36    19    18   ar
    37    19    20    1
    38    59    31   ar
    39    61    74   ar
    40    61    88   ar
    41    70    81   ar
    42    70    45    1
    43    18    17    1
    44    81    52   ar
    45    74    58   ar
    46    50    88   ar
    47    50    49   ar
    48    53    37   ar
    49    53    39    1
    50    88    48   ar
    51    63    37   ar
    52    63    66   ar
    53    79    75   ar
    54    79    66   ar
    55    31    75   ar
    56    31    77   ar
    57    45    17    1
    58    45    39    1
    59    45    46    1
    60    37    40   ar
    61    17    39    1
    62    17    14    1
    63    39    60    1
    64    75    47   ar
    65    58    67   ar
    66    58    69   ar
    67    66    73   ar
    68    52    46   ar
    69    52    67   ar
    70    49    77   ar
    71    49    82   ar
    72    48    69   ar
    73    48    82   ar
    74    77    44   ar
    75    16    14    1
    76    46    68   ar
    77    67    32   ar
    78    12    11    1
    79    14    11    1
    80    14    15    1
    81    69    85   ar
    82    40    60   ar
    83    40    57   ar
    84    82    64   ar
    85    60    72   ar
    86    73    57   ar
    87    73    33   ar
    88    47    44   ar
    89    47    33   ar
    90    11    13    1
    91    11     8    1
    92    44    86   ar
    93    57    62   ar
    94    68    72   ar
    95    68    38   ar
    96    32    85   ar
    97    32    38   ar
    98    33    84   ar
    99    85    65   ar
   100    72    41   ar
   101    64    86   ar
   102    64    65   ar
   103    10     8    1
   104    86    42   ar
   105    38    55   ar
   106     8     9    1
   107     8     7    1
   108    65    35   ar
   109    62    84   ar
   110    62    41   ar
   111    84    42   ar
   112    41    55   ar
   113    42    35   ar
   114    55    35   ar
   115     7     6    2
   116     7     1    1
   117     1     2    1
   118     3     2    1
   119     2     4    1
   120     2     5    1
