@<TRIPOS>MOLECULE
3-methyl-4-nitropyridine-N-oxide
 17 17 0 0 0
SMALL
GASTEIGER

@<TRIPOS>ATOM
      1 N           3.3025    0.2961    2.6187 N.4     1  LIG1       -0.2023
      2 C           3.8402    1.0911    1.6610 C.2     1  LIG1        0.0381
      3 H           4.6313    0.8214    1.2527 H       1  LIG1        0.0835
      4 C           3.2650    2.2846    1.2630 C.2     1  LIG1       -0.0151
      5 C           2.0795    2.6364    1.9072 C.3     1  LIG1        0.1999
      6 C           1.5398    1.8396    2.9081 C.2     1  LIG1       -0.0261
      7 H           0.7587    2.0982    3.3406 H       1  LIG1        0.0617
      8 C           2.1615    0.6743    3.2551 C.2     1  LIG1        0.0352
      9 H           1.8045    0.1391    3.9266 H       1  LIG1        0.0833
     10 O           3.8777   -0.8220    2.9318 O.3     1  LIG1       -0.0808
     11 C           4.0008    3.0925    0.2317 C.3     1  LIG1       -0.0392
     12 H           4.7770    2.6088   -0.0592 H       1  LIG1        0.0276
     13 H           4.2712    3.9304    0.6143 H       1  LIG1        0.0276
     14 H           3.4247    3.2543   -0.5190 H       1  LIG1        0.0276
     15 N           1.3414    3.8569    1.5761 N.pl3   1  LIG1        0.0399
     16 O           1.6022    4.4263    0.5309 O.2     1  LIG1       -0.1304
     17 O           0.4822    4.2437    2.3479 O.2     1  LIG1       -0.1304
@<TRIPOS>BOND
     1    14    11    1
     2    12    11    1
     3    11    13    1
     4    11     4    1
     5    16    15    2
     6     3     2    1
     7     4     2    2
     8     4     5    1
     9    15     5    1
    10    15    17    2
    11     2     1    1
    12     5     6    1
    13     1    10    1
    14     1     8    1
    15     6     8    2
    16     6     7    1
    17     8     9    1
