@<TRIPOS>MOLECULE
2-amino-4-chloro-3,5,6-trifluoropyridine
 13 13 0 0 0
SMALL
GASTEIGER

@<TRIPOS>ATOM
      1 CL         -1.8637    2.7270    3.9621 Cl      1  LIG1       -0.0773
      2 F          -0.4583    5.0960    2.8766 F       1  LIG1       -0.2003
      3 N           1.4647    2.7748    0.9642 N.ar    1  LIG1       -0.1992
      4 F          -0.6405    0.3790    2.6131 F       1  LIG1       -0.1991
      5 C           1.0201    3.9245    1.4723 C.ar    1  LIG1        0.1564
      6 N           1.5950    5.0775    1.0679 N.pl3   1  LIG1       -0.3407
      7 H           2.2635    5.0124    0.5014 H       1  LIG1        0.1438
      8 H           1.3555    5.7611    1.4205 H       1  LIG1        0.1438
      9 F           1.3828    0.5374    0.8145 F       1  LIG1       -0.1807
     10 C          -0.0324    3.9191    2.3956 C.ar    1  LIG1        0.1839
     11 C          -0.6003    2.7465    2.8109 C.ar    1  LIG1        0.1190
     12 C          -0.1215    1.5697    2.2661 C.ar    1  LIG1        0.1985
     13 C           0.8959    1.6614    1.3612 C.ar    1  LIG1        0.2520
@<TRIPOS>BOND
     1     7     6    1
     2     9    13    1
     3     3    13   ar
     4     3     5   ar
     5     6     8    1
     6     6     5    1
     7    13    12   ar
     8     5    10   ar
     9    12     4    1
    10    12    11   ar
    11    10    11   ar
    12    10     2    1
    13    11     1    1
