@<TRIPOS>MOLECULE
7233679.cif
 32 32 0 0 0
SMALL
GASTEIGER

@<TRIPOS>ATOM
      1 N           4.1491    3.5933   14.0559 N.am    1  LIG1       -0.2805
      2 S           2.0930    5.8916   15.2092 S.2     1  LIG1       -0.0993
      3 O           5.1464    1.9840   12.7182 O.2     1  LIG1       -0.2649
      4 C           4.1619    3.9896   15.3930 C.3     1  LIG1        0.1029
      5 C           5.0143    2.4999   13.8169 C.2     1  LIG1        0.3025
      6 C           5.0611    3.1571   16.0321 C.3     1  LIG1        0.0269
      7 C           3.3853    5.0436   15.9751 C.ar    1  LIG1        0.0163
      8 C           3.5501    5.5180   17.2645 C.ar    1  LIG1       -0.0494
      9 H           4.1894    5.1891   17.8534 H       1  LIG1        0.0626
     10 C           2.1180    3.5804   12.6103 C.3     1  LIG1       -0.0371
     11 H           1.5289    3.6898   13.3725 H       1  LIG1        0.0280
     12 H           2.2346    2.6299   12.4552 H       1  LIG1        0.0280
     13 C           3.4622    4.2101   12.9174 C.3     1  LIG1        0.0161
     14 H           4.0292    4.1394   12.1328 H       1  LIG1        0.0465
     15 H           3.3314    5.1535   13.1031 H       1  LIG1        0.0465
     16 C           0.1483    3.6176   10.9875 C.3     1  LIG1       -0.0533
     17 H          -0.4815    3.7383   11.7154 H       1  LIG1        0.0265
     18 H           0.2590    2.6644   10.8463 H       1  LIG1        0.0265
     19 C           2.6582    6.5413   17.5900 C.ar    1  LIG1       -0.0544
     20 H           2.6486    6.9704   18.4156 H       1  LIG1        0.0623
     21 C           1.4839    4.2203   11.3824 C.3     1  LIG1       -0.0516
     22 H           1.3599    5.1670   11.5534 H       1  LIG1        0.0266
     23 H           2.0965    4.1351   10.6360 H       1  LIG1        0.0266
     24 C          -0.4243    4.2446    9.7249 C.3     1  LIG1       -0.0559
     25 H          -0.4968    5.2031    9.8542 H       1  LIG1        0.0263
     26 H           0.1904    4.0909    8.9898 H       1  LIG1        0.0263
     27 C          -1.7716    3.6979    9.3573 C.3     1  LIG1       -0.0653
     28 H          -1.7059    2.7496    9.2234 H       1  LIG1        0.0230
     29 H          -2.0752    4.1152    8.5474 H       1  LIG1        0.0230
     30 H          -2.3944    3.8796   10.0644 H       1  LIG1        0.0230
     31 C           1.8116    6.8426   16.5854 C.ar    1  LIG1       -0.0240
     32 H           1.1526    7.4955   16.6401 H       1  LIG1        0.0693
@<TRIPOS>BOND
     1    29    27    1
     2    26    24    1
     3    28    27    1
     4    27    24    1
     5    27    30    1
     6    24    25    1
     7    24    16    1
     8    23    21    1
     9    18    16    1
    10    16    21    1
    11    16    17    1
    12    21    22    1
    13    21    10    1
    14    14    13    1
    15    12    10    1
    16    10    13    1
    17    10    11    1
    18     3     5    2
    19    13    15    1
    20    13     1    1
    21     5     1   am
    22     1     4    1
    23     2     7   ar
    24     2    31   ar
    25     4     7    1
    26     4     6    1
    27     7     8   ar
    28    31    32    1
    29    31    19   ar
    30     8    19   ar
    31     8     9    1
    32    19    20    1
