@<TRIPOS>MOLECULE
C6 Cl4 O2, C6 H9 N2
 29 29 0 0 0
SMALL
GASTEIGER

@<TRIPOS>ATOM
      1 CL          6.3174    2.9938    4.1929 Cl      1  LIG1       -0.0779
      2 CL          4.5306    3.5650    1.6553 Cl      1  LIG1       -0.0779
      3 CL          0.2180    4.0303    4.8436 Cl      1  LIG1       -0.0779
      4 CL          2.0239    3.5299    7.3562 Cl      1  LIG1       -0.0779
      5 O           4.7623    2.7772    6.6521 O.2     1  LIG1       -0.2847
      6 O           1.7200    3.9553    2.3245 O.2     1  LIG1       -0.2847
      7 C           4.0651    3.0953    5.6615 C.2     1  LIG1        0.2184
      8 C           4.6205    3.1775    4.3231 C.2     1  LIG1        0.1110
      9 C           3.8455    3.4606    3.2304 C.2     1  LIG1        0.1110
     10 C           2.4219    3.6886    3.3296 C.2     1  LIG1        0.2184
     11 C           1.8899    3.6793    4.6701 C.2     1  LIG1        0.1110
     12 C           2.6724    3.4105    5.7627 C.2     1  LIG1        0.1110
     13 N          -1.0617    4.3213    8.7969 N.pl3   2  LIG2       -0.2017
     14 N          -2.5290    2.8465    7.8261 N.pl3   2  LIG2       -0.2514
     15 H          -2.8172    3.4604    7.2976 H       2  LIG2        0.2881
     16 H          -2.8572    2.0526    7.7827 H       2  LIG2        0.2881
     17 C          -1.5843    3.1217    8.7039 C.2     2  LIG2        0.2562
     18 C          -1.1080    2.1181    9.5570 C.2     2  LIG2        0.0085
     19 H          -1.4337    1.2514    9.4710 H       2  LIG2        0.0655
     20 C          -0.1869    2.3876   10.4988 C.3     2  LIG2        0.0162
     21 H           0.0963    1.7448   11.1085 H       2  LIG2        0.0398
     22 C           0.3063    3.6529   10.5133 C.2     2  LIG2       -0.0388
     23 H           0.9840    3.8480   11.1185 H       2  LIG2        0.0612
     24 C          -0.1145    4.6179    9.7222 C.2     2  LIG2        0.0806
     25 H           0.2276    5.4792    9.7962 H       2  LIG2        0.1057
     26 C          -1.4876    5.3249    7.8777 C.3     2  LIG2        0.0741
     27 H          -1.0246    6.1458    8.0618 H       2  LIG2        0.0693
     28 H          -1.2899    5.0418    6.9809 H       2  LIG2        0.0693
     29 H          -2.4325    5.4627    7.9682 H       2  LIG2        0.0693
@<TRIPOS>BOND
     1     2     9    1
     2     6    10    2
     3     9    10    1
     4     9     8    2
     5    10    11    1
     6     1     8    1
     7     8     7    1
     8    11     3    1
     9    11    12    2
    10     7    12    1
    11     7     5    2
    12    12     4    1
    13    28    26    1
    14    15    14    1
    15    16    14    1
    16    14    17    1
    17    26    29    1
    18    26    27    1
    19    26    13    1
    20    17    13    1
    21    17    18    2
    22    13    24    1
    23    19    18    1
    24    18    20    1
    25    24    25    1
    26    24    22    2
    27    20    22    1
    28    20    21    1
    29    22    23    1
