@<TRIPOS>MOLECULE
7233709.cif
 64 72 0 0 0
SMALL
GASTEIGER

@<TRIPOS>ATOM
      1 C           3.3499    7.2741    6.7660 C.ar    1  LIG1       -0.0282
      2 C           4.4419    7.9191    7.3284 C.ar    1  LIG1       -0.0571
      3 H           4.8564    7.5485    8.0859 H       1  LIG1        0.0621
      4 C           4.9373    9.1058    6.7918 C.ar    1  LIG1       -0.0615
      5 H           5.6864    9.5227    7.1781 H       1  LIG1        0.0618
      6 C           4.3268    9.6662    5.6909 C.ar    1  LIG1       -0.0617
      7 H           4.6659   10.4573    5.3145 H       1  LIG1        0.0618
      8 C           3.2200    9.0630    5.1479 C.ar    1  LIG1       -0.0615
      9 H           2.7824    9.4621    4.4182 H       1  LIG1        0.0618
     10 C           2.7366    7.8603    5.6701 C.ar    1  LIG1       -0.0571
     11 H           1.9907    7.4461    5.2761 H       1  LIG1        0.0621
     12 C           1.7422    5.3204    6.5403 C.ar    1  LIG1       -0.0282
     13 C           0.4005    5.4834    6.8420 C.ar    1  LIG1       -0.0571
     14 H           0.1493    5.9912    7.5908 H       1  LIG1        0.0621
     15 C          -0.5818    4.8972    6.0400 C.ar    1  LIG1       -0.0615
     16 H          -1.4882    5.0184    6.2588 H       1  LIG1        0.0618
     17 C          -0.2478    4.1507    4.9460 C.ar    1  LIG1       -0.0617
     18 H          -0.9168    3.7462    4.4239 H       1  LIG1        0.0618
     19 C           1.0684    4.0028    4.6234 C.ar    1  LIG1       -0.0615
     20 H           1.3078    3.5137    3.8578 H       1  LIG1        0.0618
     21 C           2.0548    4.5622    5.4083 C.ar    1  LIG1       -0.0571
     22 H           2.9570    4.4313    5.1763 H       1  LIG1        0.0621
     23 C           1.5749    3.1261    8.9546 C.ar    1  LIG1       -0.0282
     24 C           0.3321    3.2108    9.5709 C.ar    1  LIG1       -0.0571
     25 H           0.2202    3.7729   10.3161 H       1  LIG1        0.0621
     26 C          -0.7456    2.4731    9.0993 C.ar    1  LIG1       -0.0615
     27 H          -1.5805    2.5435    9.5273 H       1  LIG1        0.0618
     28 C          -0.6031    1.6419    8.0149 C.ar    1  LIG1       -0.0617
     29 H          -1.3341    1.1439    7.6963 H       1  LIG1        0.0618
     30 C           0.6227    1.5501    7.4025 C.ar    1  LIG1       -0.0615
     31 H           0.7248    0.9925    6.6522 H       1  LIG1        0.0618
     32 C           1.7106    2.2638    7.8727 C.ar    1  LIG1       -0.0571
     33 H           2.5478    2.1649    7.4564 H       1  LIG1        0.0621
     34 C           2.3692    5.3248    9.8703 C.ar    1  LIG1       -0.0235
     35 C           1.9767    5.6883   11.1606 C.ar    1  LIG1       -0.0568
     36 H           1.9995    5.0460   11.8477 H       1  LIG1        0.0621
     37 C           1.5549    6.9757   11.4495 C.ar    1  LIG1       -0.0614
     38 H           1.3066    7.2100   12.3256 H       1  LIG1        0.0618
     39 C           1.5055    7.9075   10.4349 C.ar    1  LIG1       -0.0614
     40 H           1.1984    8.7779   10.6136 H       1  LIG1        0.0618
     41 C           1.9077    7.5690    9.1498 C.ar    1  LIG1       -0.0568
     42 H           1.8748    8.2176    8.4698 H       1  LIG1        0.0621
     43 C           2.3625    6.2799    8.8439 C.ar    1  LIG1       -0.0235
     44 C           2.8644    5.9503    7.3946 C.3     1  LIG1        0.0724
     45 C           4.0346    4.9453    7.5261 C.ar    1  LIG1       -0.0035
     46 C           5.1960    4.8785    6.7342 C.ar    1  LIG1        0.0602
     47 C           6.2433    4.0206    7.0791 C.ar    1  LIG1        0.0385
     48 C           6.2156    3.2161    8.2322 C.ar    1  LIG1       -0.0009
     49 C           5.0362    3.2348    8.9818 C.ar    1  LIG1        0.0023
     50 C           3.9648    4.0322    8.5729 C.ar    1  LIG1       -0.0133
     51 C           2.7817    3.9066    9.5269 C.3     1  LIG1        0.0727
     52 C           3.3920    3.0121   10.6177 C.ar    1  LIG1       -0.0134
     53 C           2.9412    2.3519   11.7823 C.ar    1  LIG1       -0.0495
     54 H           2.0952    2.4785   12.1740 H       1  LIG1        0.0626
     55 C           3.9028    1.4994   12.2642 C.ar    1  LIG1       -0.0234
     56 H           3.7912    0.9809   13.0415 H       1  LIG1        0.0693
     57 C           4.6479    2.6174   10.2317 C.ar    1  LIG1        0.0249
     58 C           7.4345    2.4651    8.3930 C.ar    1  LIG1       -0.0463
     59 H           7.6075    1.8896    9.1147 H       1  LIG1        0.0629
     60 C           8.2968    2.6878    7.3835 C.ar    1  LIG1       -0.0231
     61 H           9.1328    2.2629    7.3240 H       1  LIG1        0.0694
     62 S           5.3246    1.4741   11.3168 S.2     1  LIG1       -0.0963
     63 S           7.7367    3.8200    6.2089 S.2     1  LIG1       -0.0952
     64 CL          5.4415    5.7560    5.2496 Cl      1  LIG1       -0.0820
@<TRIPOS>BOND
     1    20    19    1
     2     9     8    1
     3    18    17    1
     4    19    17   ar
     5    19    21   ar
     6    17    15   ar
     7     8    10   ar
     8     8     6   ar
     9    22    21    1
    10    64    46    1
    11    11    10    1
    12     7     6    1
    13    21    12   ar
    14    10     1   ar
    15     6     4   ar
    16    15    16    1
    17    15    13   ar
    18    63    47   ar
    19    63    60   ar
    20    12    13   ar
    21    12    44    1
    22    31    30    1
    23    46    47   ar
    24    46    45   ar
    25     1     2   ar
    26     1    44    1
    27     4     5    1
    28     4     2   ar
    29    13    14    1
    30    47    48   ar
    31    61    60    1
    32     2     3    1
    33    60    58   ar
    34    44    45    1
    35    44    43    1
    36    30    32   ar
    37    30    28   ar
    38    33    32    1
    39    45    50   ar
    40    29    28    1
    41    32    23   ar
    42    28    26   ar
    43    48    58   ar
    44    48    49   ar
    45    58    59    1
    46    42    41    1
    47    50    49   ar
    48    50    51    1
    49    43    41   ar
    50    43    34   ar
    51    23    51    1
    52    23    24   ar
    53    49    57    1
    54    26    27    1
    55    26    24   ar
    56    41    39   ar
    57    51    34    1
    58    51    52    1
    59    24    25    1
    60    34    35   ar
    61    57    52   ar
    62    57    62   ar
    63    39    40    1
    64    39    37   ar
    65    52    53   ar
    66    35    37   ar
    67    35    36    1
    68    62    55   ar
    69    37    38    1
    70    53    54    1
    71    53    55   ar
    72    55    56    1
