@<TRIPOS>MOLECULE
C18 H12 Cl2 N2 O
 35 37 0 0 0
SMALL
GASTEIGER

@<TRIPOS>ATOM
      1 O           1.0476   11.8349    2.8875 O.2     1  LIG1       -0.2697
      2 CL          4.9995    9.6140   -2.0364 Cl      1  LIG1       -0.0835
      3 CL          3.4722    9.9925    2.0065 Cl      1  LIG1       -0.0612
      4 C           3.2372   12.0701    3.7149 C.ar    1  LIG1        0.0738
      5 C           3.9006   10.8831    3.4228 C.ar    1  LIG1        0.1413
      6 C           1.1200   13.6399    0.0583 C.ar    1  LIG1        0.0033
      7 C           3.8716   10.7919   -1.4421 C.ar    1  LIG1        0.0410
      8 C           4.3401   11.9511   -0.8845 C.ar    1  LIG1       -0.0428
      9 H           5.2546   12.1191   -0.8513 H       1  LIG1        0.0632
     10 C           0.2641   15.0683    1.8002 C.ar    1  LIG1       -0.0399
     11 H           0.3059   15.3802    2.6760 H       1  LIG1        0.0636
     12 C           3.4500   12.8625   -0.3744 C.ar    1  LIG1       -0.0526
     13 H           3.7671   13.6385    0.0293 H       1  LIG1        0.0624
     14 C           1.6420   11.4796   -1.0639 C.ar    1  LIG1       -0.0526
     15 H           0.7278   11.3265   -1.1422 H       1  LIG1        0.0624
     16 C           3.6820   12.7660    4.8158 C.ar    1  LIG1       -0.0453
     17 H           3.2925   13.5807    5.0389 H       1  LIG1        0.0626
     18 C           2.0449   12.5086    2.9153 C.2     1  LIG1        0.2512
     19 C           1.1755   14.1364    1.3580 C.ar    1  LIG1        0.0414
     20 C           2.0896   12.6421   -0.4526 C.ar    1  LIG1       -0.0160
     21 C           5.2532   11.0570    5.2204 C.ar    1  LIG1        0.0293
     22 H           5.9259   10.6995    5.7530 H       1  LIG1        0.0830
     23 C           2.5284   10.5532   -1.5552 C.ar    1  LIG1       -0.0428
     24 H           2.2198    9.7742   -1.9595 H       1  LIG1        0.0632
     25 C           0.1113   14.1125   -0.7724 C.ar    1  LIG1       -0.0523
     26 H           0.0417   13.7871   -1.6405 H       1  LIG1        0.0624
     27 C           4.7051   12.2575    5.5884 C.ar    1  LIG1       -0.0428
     28 H           5.0138   12.7156    6.3358 H       1  LIG1        0.0633
     29 C          -0.7064   15.5378    0.9487 C.ar    1  LIG1       -0.0600
     30 H          -1.3087   16.1830    1.2395 H       1  LIG1        0.0618
     31 C          -0.7848   15.0525   -0.3307 C.ar    1  LIG1       -0.0611
     32 H          -1.4498   15.3632   -0.9029 H       1  LIG1        0.0618
     33 N           2.1791   13.6588    2.2630 N.am    1  LIG1       -0.2809
     34 H           2.8872   14.1295    2.3875 H       1  LIG1        0.1552
     35 N           4.8722   10.3702    4.1360 N.ar    1  LIG1       -0.2428
@<TRIPOS>BOND
     1     2     7    1
     2    24    23    1
     3    26    25    1
     4    23     7   ar
     5    23    14   ar
     6     7     8   ar
     7    15    14    1
     8    14    20   ar
     9    32    31    1
    10     8     9    1
    11     8    12   ar
    12    25    31   ar
    13    25     6   ar
    14    20    12   ar
    15    20     6    1
    16    12    13    1
    17    31    29   ar
    18     6    19   ar
    19    29    30    1
    20    29    10   ar
    21    19    10   ar
    22    19    33    1
    23    10    11    1
    24     3     5    1
    25    33    34    1
    26    33    18   am
    27     1    18    2
    28    18     4    1
    29     5     4   ar
    30     5    35   ar
    31     4    16   ar
    32    35    21   ar
    33    16    17    1
    34    16    27   ar
    35    21    27   ar
    36    21    22    1
    37    27    28    1
