@<TRIPOS>MOLECULE
7233549.cif
 36 39 0 0 0
SMALL
GASTEIGER

@<TRIPOS>ATOM
      1 O           5.2267    1.4150   20.4486 O.2     1  LIG1       -0.4353
      2 N           3.8554    2.1718   14.2216 N.2     1  LIG1       -0.2550
      3 C           4.1841    1.1807   18.2848 C.ar    1  LIG1        0.0371
      4 N           3.2015    0.4391   20.4176 N.ar    1  LIG1       -0.2090
      5 C           4.0684    1.7709   15.5605 C.ar    1  LIG1        0.0639
      6 C           5.2196    1.8810   17.6666 C.ar    1  LIG1       -0.0475
      7 H           5.9529    2.1549   18.1679 H       1  LIG1        0.0626
      8 C           3.0505    1.0477   16.1732 C.ar    1  LIG1       -0.0356
      9 H           2.3156    0.7753   15.6727 H       1  LIG1        0.0639
     10 C           4.1619    0.9684   19.7234 C.ar    1  LIG1        0.2284
     11 C           4.8782    1.1409   21.7521 C.ar    1  LIG1        0.1557
     12 C           5.1678    2.1703   16.3208 C.ar    1  LIG1       -0.0356
     13 H           5.8673    2.6328   15.9174 H       1  LIG1        0.0639
     14 C           4.8012    2.1989   13.3875 C.2     1  LIG1        0.0355
     15 H           5.6446    1.8972   13.6341 H       1  LIG1        0.0836
     16 C           3.6302    0.5404   21.7441 C.ar    1  LIG1        0.1099
     17 C           3.1172    0.7320   17.5077 C.ar    1  LIG1       -0.0475
     18 H           2.4472    0.2166   17.8939 H       1  LIG1        0.0626
     19 C           5.5162    2.5095   11.0333 C.ar    1  LIG1       -0.0350
     20 H           6.3116    2.0653   11.2193 H       1  LIG1        0.0639
     21 C           4.5769    2.7077   12.0215 C.ar    1  LIG1       -0.0041
     22 N           4.1555    3.6402    9.4138 N.ar    1  LIG1       -0.2632
     23 C           3.0224    0.1762   22.9372 C.ar    1  LIG1       -0.0326
     24 H           2.1916   -0.2408   22.9537 H       1  LIG1        0.0640
     25 C           5.5891    1.4067   22.9044 C.ar    1  LIG1       -0.0171
     26 H           6.4344    1.7944   22.8879 H       1  LIG1        0.0655
     27 C           3.4223    3.3979   11.6774 C.ar    1  LIG1       -0.0350
     28 H           2.7642    3.5601   12.3153 H       1  LIG1        0.0639
     29 C           4.9600    1.0572   24.0858 C.ar    1  LIG1       -0.0582
     30 H           5.3891    1.2268   24.8936 H       1  LIG1        0.0619
     31 C           3.2650    3.8369   10.3874 C.ar    1  LIG1        0.0282
     32 H           2.4867    4.3009   10.1781 H       1  LIG1        0.0830
     33 C           3.7084    0.4625   24.0997 C.ar    1  LIG1       -0.0595
     34 H           3.3192    0.2489   24.9155 H       1  LIG1        0.0618
     35 C           5.2574    2.9823    9.7587 C.ar    1  LIG1        0.0282
     36 H           5.8958    2.8289    9.1004 H       1  LIG1        0.0830
@<TRIPOS>BOND
     1    36    35    1
     2    22    35   ar
     3    22    31   ar
     4    35    19   ar
     5    32    31    1
     6    31    27   ar
     7    19    20    1
     8    19    21   ar
     9    27    21   ar
    10    27    28    1
    11    21    14    1
    12    14    15    1
    13    14     2    2
    14     2     5    1
    15     5     8   ar
    16     5    12   ar
    17     9     8    1
    18    13    12    1
    19     8    17   ar
    20    12     6   ar
    21    17    18    1
    22    17     3   ar
    23     6     7    1
    24     6     3   ar
    25     3    10    1
    26    10     4   ar
    27    10     1   ar
    28     4    16   ar
    29     1    11   ar
    30    16    11   ar
    31    16    23   ar
    32    11    25   ar
    33    26    25    1
    34    25    29   ar
    35    23    24    1
    36    23    33   ar
    37    29    33   ar
    38    29    30    1
    39    33    34    1
