@<TRIPOS>MOLECULE
2,7-dibutyl[1]benzothieno[3,2-b][1]benzothiophenes 2,3,5,6-tetrafluoro-7,7,8,8-tetracyanoquinodimethane
 34 32 0 0 0
SMALL
GASTEIGER

@<TRIPOS>ATOM
      1 S           4.6989    5.9605    0.1032 S.3     1  LIG1       -0.0869
      2 F           1.1166    6.5695    0.1056 F       2  LIG2       -0.2017
      3 F           0.4344    5.1950    2.2285 F       2  LIG2       -0.1993
      4 N           2.5894    4.3938   -4.5863 N.1     2  LIG2       -0.1901
      5 N           1.9885    7.9195   -2.4739 N.1     2  LIG2       -0.1901
      6 C           0.8304    4.5375    1.1366 C.2     2  LIG2        0.1969
      7 C           1.5963    4.6294   -1.1850 C.2     2  LIG2        0.0527
      8 C           4.1669    3.6005    1.7152 C.2     1  LIG1       -0.0020
      9 C           4.5528    4.2814    0.5195 C.2     1  LIG1        0.0348
     10 C           1.9368    5.3550   -2.2979 C.2     2  LIG2        0.1388
     11 C           3.7509    4.0748    2.9549 C.2     1  LIG1       -0.0529
     12 C           2.3161    4.7689   -3.5459 C.1     2  LIG2        0.1109
     13 C           5.2335    5.5335   -1.5104 C.2     1  LIG1        0.0229
     14 C           5.5727    6.4250   -2.5151 C.2     1  LIG1       -0.0613
     15 C           5.9740    5.9461   -3.7548 C.3     1  LIG1        0.0099
     16 C           1.9624    6.7847   -2.3392 C.1     2  LIG2        0.1109
     17 C           3.4242    3.1661    3.9499 C.2     1  LIG1       -0.0611
     18 C           6.3602    6.8742   -4.8708 C.3     1  LIG1       -0.0422
     19 C           4.1921    7.9141   -5.4136 C.3     1  LIG1       -0.0559
     20 C           5.3484    7.7113   -5.4177 C.3     1  LIG1       -0.0525
     21 C           3.1920    8.7948   -5.9414 C.3     1  LIG1       -0.0653
     22 C           1.1702    5.2413    0.0580 C.2     2  LIG2        0.1711
     23 H           3.6981    4.9901    3.1102 H       1  LIG1        0.0624
     24 H           5.5347    7.3410   -2.3570 H       1  LIG1        0.0589
     25 H           3.1650    3.4879    4.7828 H       1  LIG1        0.0618
     26 H           7.0811    7.4537   -4.5780 H       1  LIG1        0.0274
     27 H           6.6530    6.3627   -5.6404 H       1  LIG1        0.0274
     28 H           4.1213    7.5044   -6.2905 H       1  LIG1        0.0263
     29 H           3.6358    7.3848   -4.8213 H       1  LIG1        0.0263
     30 H           3.4932    9.2106   -6.7523 H       1  LIG1        0.0230
     31 H           2.3567    8.3494   -6.1022 H       1  LIG1        0.0230
     32 H           3.0713    9.4647   -5.2638 H       1  LIG1        0.0230
     33 H           5.4800    8.1664   -4.5711 H       1  LIG1        0.0265
     34 H           5.9913    8.1491   -5.9964 H       1  LIG1        0.0265
@<TRIPOS>BOND
     1    30    21    1
     2    28    19    1
     3    31    21    1
     4    34    20    1
     5    21    19    1
     6    21    32    1
     7    27    18    1
     8    20    19    1
     9    20    18    1
    10    20    33    1
    11    19    29    1
    12    18    26    1
    13    18    15    1
    14     4    12    3
    15    15    14    1
    16    12    10    1
    17    14    24    1
    18    14    13    2
    19     5    16    3
    20    16    10    1
    21    10     7    2
    22    13     1    1
    23     7    22    1
    24    22     2    1
    25    22     6    2
    26     1     9    1
    27     9     8    2
    28     6     3    1
    29     8    11    1
    30    11    23    1
    31    11    17    2
    32    17    25    1
