@<TRIPOS>MOLECULE
4-cyanopyridine 1,2-diiodoethene
 14 13 0 0 0
SMALL
GASTEIGER

@<TRIPOS>ATOM
      1 I           2.5676    5.0324   12.3854 I       1  LIG1       -0.0736
      2 C           3.2749    6.5542   13.5331 C.3     1  LIG1        0.0736
      3 N           1.4736    3.0596   10.6950 N.ar    1  LIG1       -0.2632
      4 N          -1.2248   -0.6698    7.9925 N.1     1  LIG1       -0.1909
      5 C          -0.6477    0.1422    8.5211 C.1     1  LIG1        0.0992
      6 C           0.0813    1.1427    9.2711 C.ar    1  LIG1        0.0546
      7 C           0.3283    2.3772    8.7149 C.ar    1  LIG1       -0.0262
      8 H           0.0313    2.5855    7.8589 H       1  LIG1        0.0645
      9 C           1.0389    3.3069    9.4759 C.ar    1  LIG1        0.0288
     10 H           1.2133    4.1417    9.1057 H       1  LIG1        0.0830
     11 C           1.2152    1.8678   11.1973 C.ar    1  LIG1        0.0288
     12 H           1.5069    1.6819   12.0599 H       1  LIG1        0.0830
     13 C           0.5380    0.8856   10.5137 C.ar    1  LIG1       -0.0262
     14 H           0.3960    0.0535   10.9042 H       1  LIG1        0.0645
@<TRIPOS>BOND
     1     8     7    1
     2     4     5    3
     3     5     6    1
     4     7     6   ar
     5     7     9   ar
     6    10     9    1
     7     6    13   ar
     8     9     3   ar
     9    13    14    1
    10    13    11   ar
    11     3    11   ar
    12    11    12    1
    13     1     2    1
