@<TRIPOS>MOLECULE
C16 H12 O, C10 H2 N4
 45 47 0 0 0
SMALL
GASTEIGER

@<TRIPOS>ATOM
      1 O           2.9163    5.5277    5.8804 O.2     1  LIG1       -0.2923
      2 N           5.9662    5.0584   -0.8368 N.1     2  LIG2       -0.1908
      3 C           3.7834    2.6594    0.4743 C.ar    2  LIG2       -0.0245
      4 H           3.3491    3.4545    0.7613 H       2  LIG2        0.0644
      5 N           7.8046    1.6538   -2.0558 N.1     2  LIG2       -0.1908
      6 N           1.0165    1.3134    2.1125 N.1     2  LIG2       -0.1908
      7 C           1.7625    2.4660    5.6816 C.ar    1  LIG1       -0.0068
      8 C           3.2419    1.4203    0.7867 C.ar    2  LIG2        0.0704
      9 C           2.6492    3.3418    5.0257 C.ar    1  LIG1        0.0325
     10 C           5.0510    0.3175   -0.3940 C.ar    2  LIG2       -0.0245
     11 H           5.4786   -0.4775   -0.6915 H       2  LIG2        0.0644
     12 C           5.2205    0.9738    3.6868 C.ar    1  LIG1       -0.0540
     13 H           5.3984    0.0408    3.6704 H       1  LIG1        0.0624
     14 C           4.0539    1.4546    4.3550 C.ar    1  LIG1       -0.0166
     15 C           5.8253    3.2243    3.0859 C.ar    1  LIG1       -0.0611
     16 H           6.4320    3.8161    2.6570 H       1  LIG1        0.0618
     17 C           6.8235    1.6236   -1.4702 C.1     2  LIG2        0.1005
     18 N           2.8965   -2.0954    0.8838 N.1     2  LIG2       -0.1908
     19 C           5.5961    1.5591   -0.7019 C.ar    2  LIG2        0.0704
     20 C           6.0836    1.8309    3.0718 C.ar    1  LIG1       -0.0612
     21 H           6.8564    1.4954    2.6349 H       1  LIG1        0.0618
     22 C           4.9623    2.7370   -0.2608 C.ar    2  LIG2        0.0704
     23 C           3.7972    2.8651    4.3648 C.ar    1  LIG1       -0.0068
     24 C           3.1767    0.5902    5.0161 C.ar    1  LIG1       -0.0463
     25 H           3.3576   -0.3428    5.0143 H       1  LIG1        0.0630
     26 C           4.7268    3.7279    3.7018 C.ar    1  LIG1       -0.0533
     27 H           4.5719    4.6650    3.6926 H       1  LIG1        0.0624
     28 C           2.0044    1.3542    1.5334 C.1     2  LIG2        0.1005
     29 C           2.0434    1.0628    5.6775 C.ar    1  LIG1       -0.0166
     30 C           3.3279   -1.0514    0.6537 C.1     2  LIG2        0.1005
     31 C           1.1504    0.1861    6.3734 C.ar    1  LIG1       -0.0540
     32 H           1.3292   -0.7461    6.3922 H       1  LIG1        0.0624
     33 C           2.3696    4.8184    5.0517 C.2     1  LIG1        0.1613
     34 C           0.6023    2.9353    6.3801 C.ar    1  LIG1       -0.0533
     35 H           0.4078    3.8650    6.3990 H       1  LIG1        0.0624
     36 C           5.5201    4.0283   -0.5861 C.1     2  LIG2        0.1005
     37 C          -0.2233    2.0611    7.0162 C.ar    1  LIG1       -0.0611
     38 H          -0.9906    2.3860    7.4720 H       1  LIG1        0.0618
     39 C           1.4257    5.3498    4.0211 C.3     1  LIG1       -0.0014
     40 H           1.3240    6.3171    4.1388 H       1  LIG1        0.0309
     41 H           0.5532    4.9156    4.1235 H       1  LIG1        0.0309
     42 H           1.7811    5.1637    3.1271 H       1  LIG1        0.0309
     43 C           0.0498    0.6702    7.0070 C.ar    1  LIG1       -0.0612
     44 H          -0.5416    0.0710    7.4482 H       1  LIG1        0.0618
     45 C           3.8806    0.2408    0.3500 C.ar    2  LIG2        0.0704
@<TRIPOS>BOND
     1     5    17    3
     2    17    19    1
     3     2    36    3
     4    19    10   ar
     5    19    22   ar
     6    11    10    1
     7    36    22    1
     8    10    45   ar
     9    22     3   ar
    10    45    30    1
    11    45     8   ar
    12     3     4    1
    13     3     8   ar
    14    30    18    3
    15     8    28    1
    16    28     6    3
    17    21    20    1
    18    16    15    1
    19    20    15   ar
    20    20    12   ar
    21    15    26   ar
    22    42    39    1
    23    13    12    1
    24    12    14   ar
    25    27    26    1
    26    26    23   ar
    27    39    41    1
    28    39    40    1
    29    39    33    1
    30    14    23   ar
    31    14    24   ar
    32    23     9   ar
    33    25    24    1
    34    24    29   ar
    35     9    33    1
    36     9     7   ar
    37    33     1    2
    38    29     7   ar
    39    29    31   ar
    40     7    34   ar
    41    31    32    1
    42    31    43   ar
    43    34    35    1
    44    34    37   ar
    45    43    37   ar
    46    43    44    1
    47    37    38    1
