@<TRIPOS>MOLECULE
C26 H25 N3 O3
 57 60 0 0 0
SMALL
GASTEIGER

@<TRIPOS>ATOM
      1 O          -2.4713   -0.0701   12.9289 O.3     1  LIG1       -0.4240
      2 O          -1.4115   -0.9623    9.0767 O.2     1  LIG1       -0.2901
      3 O          -0.6166    1.0368   13.2753 O.2     1  LIG1       -0.2486
      4 N           0.5389    0.7363    9.2644 N.2     1  LIG1       -0.2067
      5 H           0.0994   -0.0362    8.8934 H       1  LIG1        0.4532
      6 N           3.7309    3.8601    5.8285 N.pl3   1  LIG1       -0.3360
      7 N           2.0812    5.7119   13.0740 N.pl3   1  LIG1       -0.3360
      8 C          -3.2870   -0.8529   12.1481 C.ar    1  LIG1        0.1422
      9 C          -4.4584   -1.3078   12.7451 C.ar    1  LIG1       -0.0185
     10 H          -4.6775   -1.0592   13.6356 H       1  LIG1        0.0654
     11 C          -5.2954   -2.1276   12.0170 C.ar    1  LIG1       -0.0582
     12 H          -6.1007   -2.4438   12.4106 H       1  LIG1        0.0619
     13 C          -4.9751   -2.4987   10.7123 C.ar    1  LIG1       -0.0609
     14 H          -5.5552   -3.0740   10.2274 H       1  LIG1        0.0618
     15 C          -3.8185   -2.0334   10.1251 C.ar    1  LIG1       -0.0477
     16 H          -3.6044   -2.2853    9.2348 H       1  LIG1        0.0626
     17 C          -2.9564   -1.1887   10.8406 C.ar    1  LIG1        0.0615
     18 C          -1.7395   -0.6245   10.2346 C.2     1  LIG1        0.1960
     19 C          -1.0092    0.3372   11.0231 C.3     1  LIG1        0.2464
     20 C          -1.2943    0.4931   12.4432 C.2     1  LIG1        0.3389
     21 C           0.0536    1.0927   10.4480 C.2     1  LIG1        0.2168
     22 C           1.3705    1.5473    8.4219 C.ar    1  LIG1        0.2064
     23 C           2.5812    1.0563    7.9554 C.ar    1  LIG1        0.0114
     24 H           2.8727    0.1927    8.2235 H       1  LIG1        0.0684
     25 C           3.3705    1.8109    7.1025 C.ar    1  LIG1       -0.0345
     26 H           4.2036    1.4637    6.8049 H       1  LIG1        0.0638
     27 C           2.9563    3.0854    6.6693 C.ar    1  LIG1        0.0296
     28 C           1.7156    3.5538    7.1413 C.ar    1  LIG1       -0.0345
     29 H           1.4022    4.4058    6.8608 H       1  LIG1        0.0638
     30 C           0.9455    2.7980    8.0038 C.ar    1  LIG1        0.0114
     31 H           0.1150    3.1401    8.3139 H       1  LIG1        0.0684
     32 C           4.9631    3.3502    5.2675 C.3     1  LIG1        0.0004
     33 H           5.3723    4.0363    4.7006 H       1  LIG1        0.0428
     34 H           5.5795    3.1159    5.9916 H       1  LIG1        0.0428
     35 H           4.7724    2.5533    4.7307 H       1  LIG1        0.0428
     36 C           3.1236    4.9908    5.1514 C.3     1  LIG1        0.0004
     37 H           3.7955    5.4375    4.5945 H       1  LIG1        0.0428
     38 H           2.3875    4.6765    4.5858 H       1  LIG1        0.0428
     39 H           2.7771    5.6223    5.8166 H       1  LIG1        0.0428
     40 C           0.6008    2.3034   11.0993 C.ar    1  LIG1        0.0435
     41 C           1.9548    2.4137   11.4135 C.ar    1  LIG1       -0.0469
     42 H           2.5487    1.7106   11.1770 H       1  LIG1        0.0626
     43 C           2.4456    3.5303   12.0636 C.ar    1  LIG1       -0.0399
     44 H           3.3668    3.5670   12.2930 H       1  LIG1        0.0636
     45 C           1.6084    4.6149   12.3933 C.ar    1  LIG1        0.0292
     46 C           0.2539    4.5172   12.0163 C.ar    1  LIG1       -0.0399
     47 H          -0.3317    5.2472   12.1782 H       1  LIG1        0.0636
     48 C          -0.2326    3.3720   11.4148 C.ar    1  LIG1       -0.0469
     49 H          -1.1587    3.3125   11.2114 H       1  LIG1        0.0626
     50 C           3.5030    5.8717   13.3066 C.3     1  LIG1        0.0004
     51 H           3.6615    6.7027   13.8020 H       1  LIG1        0.0428
     52 H           3.8360    5.1118   13.8278 H       1  LIG1        0.0428
     53 H           3.9722    5.9099   12.4465 H       1  LIG1        0.0428
     54 C           1.2373    6.8796   13.2647 C.3     1  LIG1        0.0004
     55 H           1.7314    7.5607   13.7676 H       1  LIG1        0.0428
     56 H           0.9779    7.2416   12.3920 H       1  LIG1        0.0428
     57 H           0.4337    6.6245   13.7647 H       1  LIG1        0.0428
@<TRIPOS>BOND
     1    38    36    1
     2    37    36    1
     3    33    32    1
     4    35    32    1
     5    36    39    1
     6    36     6    1
     7    32     6    1
     8    32    34    1
     9     6    27    1
    10    27    25   ar
    11    27    28   ar
    12    26    25    1
    13    29    28    1
    14    25    23   ar
    15    28    30   ar
    16    23    24    1
    17    23    22   ar
    18    30    31    1
    19    30    22   ar
    20    22     4    1
    21     5     4    1
    22     2    18    2
    23    16    15    1
    24     4    21    2
    25    15    13   ar
    26    15    17   ar
    27    14    13    1
    28    18    17    1
    29    18    19    1
    30    21    19    1
    31    21    40    1
    32    13    11   ar
    33    17     8   ar
    34    19    20    1
    35    40    41   ar
    36    40    48   ar
    37    42    41    1
    38    49    48    1
    39    41    43   ar
    40    48    46   ar
    41    46    47    1
    42    46    45   ar
    43    11    12    1
    44    11     9   ar
    45    43    44    1
    46    43    45   ar
    47     8     9   ar
    48     8     1    1
    49    56    54    1
    50    45     7    1
    51    20     1    1
    52    20     3    2
    53    53    50    1
    54     9    10    1
    55     7    54    1
    56     7    50    1
    57    54    57    1
    58    54    55    1
    59    50    51    1
    60    50    52    1
