@<TRIPOS>MOLECULE
3?-fluorobiphenyl-3,5-diyl bis(tert-butyl nitroxide)
 50 51 0 0 0
SMALL
GASTEIGER

@<TRIPOS>ATOM
      1 F           1.5732    6.6507    5.1852 F       1  LIG1       -0.2055
      2 O          -4.0741    0.8186    3.9916 O.3     1  LIG1       -0.0844
      3 O          -1.1720   -0.5874    0.2538 O.3     1  LIG1       -0.0844
      4 N          -3.7928    2.0548    3.7539 N.4     1  LIG1       -0.2143
      5 N          -1.1693    0.6596   -0.0823 N.4     1  LIG1       -0.2143
      6 C          -2.6569    2.2810    2.9044 C.ar    1  LIG1        0.0706
      7 C          -2.4409    1.3714    1.8682 C.ar    1  LIG1       -0.0106
      8 C          -1.3832    1.5915    1.0024 C.ar    1  LIG1        0.0706
      9 C          -0.5246    2.6695    1.1777 C.ar    1  LIG1       -0.0283
     10 C          -0.7215    3.5591    2.2343 C.ar    1  LIG1       -0.0138
     11 C          -1.8018    3.3519    3.1013 C.ar    1  LIG1       -0.0283
     12 C           0.2327    4.6786    2.4621 C.ar    1  LIG1       -0.0150
     13 C           0.9123    5.2731    1.3942 C.ar    1  LIG1       -0.0539
     14 C           1.7990    6.3133    1.6020 C.ar    1  LIG1       -0.0585
     15 C           2.0345    6.7985    2.8816 C.ar    1  LIG1       -0.0264
     16 C           1.3516    6.2043    3.9193 C.ar    1  LIG1        0.1240
     17 C           0.4655    5.1629    3.7532 C.ar    1  LIG1       -0.0187
     18 C          -4.9041    3.0714    3.8393 C.3     1  LIG1        0.0628
     19 C          -4.4505    4.3155    4.5943 C.3     1  LIG1       -0.0398
     20 C          -6.0591    2.4304    4.5875 C.3     1  LIG1       -0.0398
     21 C          -5.3271    3.4177    2.4135 C.3     1  LIG1       -0.0398
     22 C          -1.7345    0.9922   -1.4453 C.3     1  LIG1        0.0628
     23 C          -1.4344    2.4412   -1.7879 C.3     1  LIG1       -0.0398
     24 C          -3.2446    0.7519   -1.3856 C.3     1  LIG1       -0.0398
     25 C          -1.1078    0.0762   -2.4800 C.3     1  LIG1       -0.0398
     26 H          -3.0311    0.6321    1.7694 H       1  LIG1        0.0660
     27 H           0.2035    2.7724    0.6005 H       1  LIG1        0.0645
     28 H          -1.9142    3.9117    3.8070 H       1  LIG1        0.0645
     29 H           0.7272    4.9204    0.5021 H       1  LIG1        0.0624
     30 H           2.2591    6.7367    0.8438 H       1  LIG1        0.0619
     31 H           2.6238    7.5038    3.0346 H       1  LIG1        0.0646
     32 H           0.0373    4.7665    4.5524 H       1  LIG1        0.0652
     33 H          -3.8416    4.8544    4.1196 H       1  LIG1        0.0253
     34 H          -5.2827    4.8623    4.7854 H       1  LIG1        0.0253
     35 H          -3.9960    4.0703    5.4263 H       1  LIG1        0.0253
     36 H          -6.3693    1.6355    4.0720 H       1  LIG1        0.0253
     37 H          -5.7958    2.2164    5.4956 H       1  LIG1        0.0253
     38 H          -6.7775    3.0788    4.5876 H       1  LIG1        0.0253
     39 H          -5.6089    2.6258    1.9382 H       1  LIG1        0.0253
     40 H          -6.0988    4.0195    2.4237 H       1  LIG1        0.0253
     41 H          -4.5764    3.8182    1.8812 H       1  LIG1        0.0253
     42 H          -1.7662    2.6280   -2.7136 H       1  LIG1        0.0253
     43 H          -1.8393    3.0624   -1.1523 H       1  LIG1        0.0253
     44 H          -0.4430    2.5870   -1.7901 H       1  LIG1        0.0253
     45 H          -3.6704    1.3800   -0.7102 H       1  LIG1        0.0253
     46 H          -3.6199    0.9142   -2.2436 H       1  LIG1        0.0253
     47 H          -3.4329   -0.2251   -1.0944 H       1  LIG1        0.0253
     48 H          -0.1623    0.2596   -2.5376 H       1  LIG1        0.0253
     49 H          -1.2721   -0.8791   -2.3036 H       1  LIG1        0.0253
     50 H          -1.4850    0.2948   -3.3711 H       1  LIG1        0.0253
@<TRIPOS>BOND
     1    50    25    1
     2    42    23    1
     3    48    25    1
     4    25    49    1
     5    25    22    1
     6    46    24    1
     7    44    23    1
     8    23    22    1
     9    23    43    1
    10    22    24    1
    11    22     5    1
    12    24    47    1
    13    24    45    1
    14     5     3    1
    15     5     8    1
    16    29    13    1
    17    27     9    1
    18    30    14    1
    19     8     9   ar
    20     8     7   ar
    21     9    10   ar
    22    13    14   ar
    23    13    12   ar
    24    14    15   ar
    25    26     7    1
    26     7     6   ar
    27    41    21    1
    28    39    21    1
    29    10    12    1
    30    10    11   ar
    31    21    40    1
    32    21    18    1
    33    12    17   ar
    34    15    31    1
    35    15    16   ar
    36     6    11   ar
    37     6     4    1
    38    11    28    1
    39    17    16   ar
    40    17    32    1
    41     4    18    1
    42     4     2    1
    43    18    20    1
    44    18    19    1
    45    16     1    1
    46    36    20    1
    47    33    19    1
    48    20    38    1
    49    20    37    1
    50    19    34    1
    51    19    35    1
