@<TRIPOS>MOLECULE
7235688.cif
 40 39 0 0 0
SMALL
GASTEIGER

@<TRIPOS>ATOM
      1 C          -1.2827    0.7178   18.1160 C.3     1  LIG1       -0.0327
      2 H          -2.0688    0.4795   18.6318 H       1  LIG1        0.0814
      3 H          -1.5179    0.7401   17.1754 H       1  LIG1        0.0814
      4 C          -0.1630   -0.2495   18.3675 C.3     1  LIG1       -0.0070
      5 H          -0.2522   -1.0409   17.8134 H       1  LIG1        0.0319
      6 H          -0.1319   -0.5148   19.2998 H       1  LIG1        0.0319
      7 C           1.0608    0.5484   17.9863 C.3     1  LIG1        0.0038
      8 H           1.1632    0.5930   17.0229 H       1  LIG1        0.0327
      9 H           1.8632    0.1648   18.3740 H       1  LIG1        0.0327
     10 C           0.7698    1.9290   18.5750 C.3     1  LIG1        0.0559
     11 H           1.0903    1.9607   19.5017 H       1  LIG1        0.0949
     12 C           1.3875    3.0621   17.7930 C.2     1  LIG1        0.2716
     13 C           3.9390    5.6037   18.3920 C.3     1  LIG1        0.0430
     14 C           4.2300    5.0535   19.7659 C.3     1  LIG1       -0.0481
     15 H           4.9330    4.4027   19.7079 H       1  LIG1        0.0244
     16 H           3.4392    4.6401   20.1182 H       1  LIG1        0.0244
     17 H           4.5031    5.7685   20.3459 H       1  LIG1        0.0244
     18 C           5.1006    6.4202   17.8619 C.3     1  LIG1       -0.0481
     19 H           5.1651    7.2413   18.3547 H       1  LIG1        0.0244
     20 H           4.9571    6.6157   16.9327 H       1  LIG1        0.0244
     21 H           5.9147    5.9221   17.9616 H       1  LIG1        0.0244
     22 C           2.6337    6.3848   18.3454 C.3     1  LIG1       -0.0481
     23 H           2.6702    7.1082   18.9754 H       1  LIG1        0.0244
     24 H           1.9043    5.8020   18.5695 H       1  LIG1        0.0244
     25 H           2.5026    6.7367   17.4611 H       1  LIG1        0.0244
     26 C          -0.3733    3.3553   21.9876 C.2     2  LIG2        0.4585
     27 C           0.0869    4.6597   21.3715 C.3     2  LIG2        0.4954
     28 F           0.1467    4.6248   20.0458 F       2  LIG2       -0.1605
     29 F          -0.7589    5.6509   21.6551 F       2  LIG2       -0.1605
     30 F           1.2695    5.0777   21.7977 F       2  LIG2       -0.1605
     31 N          -0.7263    2.0389   18.5628 N.4     1  LIG1        0.2358
     32 H          -0.9840    2.6906   17.9981 H       1  LIG1        0.2021
     33 H          -1.0282    2.2400   19.3857 H       1  LIG1        0.2021
     34 N           2.7059    3.2321   18.0565 N.am    1  LIG1       -0.2400
     35 H           3.0427    2.7958   18.7155 H       1  LIG1        0.1642
     36 O           0.7465    3.7091   16.9937 O.2     1  LIG1       -0.2687
     37 O           5.0230    3.5190   17.1221 O.3     1  LIG1       -0.1420
     38 O          -0.1071    3.2482   23.1851 O.co2   2  LIG2       -0.2362
     39 O          -0.9964    2.5790   21.2706 O.co2   2  LIG2       -0.2362
     40 S           3.7319    4.2445   17.1763 S.3     1  LIG1        0.0502
@<TRIPOS>BOND
     1    20    18    1
     2    36    12    2
     3     8     7    1
     4    37    40    1
     5     3     1    1
     6    40    34    1
     7    40    13    1
     8    25    22    1
     9    12    34   am
    10    12    10    1
    11     5     4    1
    12    18    21    1
    13    18    19    1
    14    18    13    1
    15     7     4    1
    16     7     9    1
    17     7    10    1
    18    32    31    1
    19    34    35    1
    20     1     4    1
    21     1    31    1
    22     1     2    1
    23    22    13    1
    24    22    24    1
    25    22    23    1
    26     4     6    1
    27    13    14    1
    28    31    10    1
    29    31    33    1
    30    10    11    1
    31    15    14    1
    32    14    16    1
    33    14    17    1
    34    28    27    1
    35    39    26   ar
    36    27    29    1
    37    27    30    1
    38    27    26    1
    39    26    38   ar
