@<TRIPOS>MOLECULE
bis((2S)-2-(6-methoxynaphthalen-2-yl)propanoic acid)  2R)-pyrrolidin-1-ium-2-carboxylate 2S)-pyrrolidin-1-ium-2-carboxylate
 96 98 0 0 0
SMALL
GASTEIGER

@<TRIPOS>ATOM
      1 O           5.9197    1.2125    8.5548 O.co2   1  PRO1       -0.2400
      2 OXT         7.2212    2.9105    9.1986 O.co2   1  PRO1       -0.2400
      3 N           3.6390    2.5068    8.8843 N.4     1  PRO1        0.2373
      4 H1          3.0233    3.0136    8.4889 H       1  PRO1        0.2022
      5 H2          3.8002    1.8016    8.3660 H       1  PRO1        0.2022
      6 C           6.1118    2.3778    8.9301 C.2     1  PRO1        0.4027
      7 CA          4.8944    3.2898    9.0997 C.3     1  PRO1        0.0804
      8 HA          4.9398    4.0338    8.4636 H       1  PRO1        0.0970
      9 CB          4.7310    3.8249   10.5244 C.3     1  PRO1        0.0057
     10 HB1         5.5931    3.9096   10.9615 H       1  PRO1        0.0327
     11 HB2         4.2958    4.6918   10.5191 H       1  PRO1        0.0327
     12 CG          3.8910    2.8189   11.2093 C.3     1  PRO1       -0.0069
     13 HG1         4.4504    2.2231   11.7318 H       1  PRO1        0.0319
     14 HG2         3.2719    3.2610   11.8109 H       1  PRO1        0.0319
     15 CD          3.1602    2.0645   10.2231 C.3     1  PRO1       -0.0327
     16 HD1         2.2086    2.2296   10.3112 H       1  PRO1        0.0814
     17 HD2         3.3206    1.1149   10.3402 H       1  PRO1        0.0814
     18 O           2.3633    3.8127    4.9946 O.2     1  LIG1       -0.2503
     19 O           4.2381    4.4423    5.9377 O.3     1  LIG1       -0.4802
     20 H           3.7259    4.8769    6.4077 H       1  LIG1        0.2951
     21 O           0.9853    1.1804   -2.7618 O.3     1  LIG1       -0.4951
     22 C           3.5489    3.7601    5.0535 C.2     1  LIG1        0.3119
     23 C           4.4383    2.9864    4.1158 C.3     1  LIG1        0.0784
     24 H           5.0896    3.6198    3.7486 H       1  LIG1        0.0459
     25 C           5.2205    1.9548    4.9209 C.3     1  LIG1       -0.0482
     26 H           5.7516    2.4022    5.5836 H       1  LIG1        0.0241
     27 H           5.7936    1.4581    4.3328 H       1  LIG1        0.0241
     28 H           4.6078    1.3552    5.3531 H       1  LIG1        0.0241
     29 C           3.6609    2.4151    2.9433 C.ar    1  LIG1       -0.0334
     30 C           3.6634    3.0774    1.7471 C.ar    1  LIG1       -0.0501
     31 H           4.1383    3.8739    1.6726 H       1  LIG1        0.0627
     32 C           2.9641    2.5855    0.6193 C.ar    1  LIG1       -0.0174
     33 C           2.9753    3.2630   -0.6237 C.ar    1  LIG1       -0.0506
     34 H           3.4408    4.0635   -0.7091 H       1  LIG1        0.0625
     35 C           2.3110    2.7524   -1.6909 C.ar    1  LIG1       -0.0194
     36 H           2.3387    3.2038   -2.5036 H       1  LIG1        0.0654
     37 C           1.5895    1.5650   -1.5926 C.ar    1  LIG1        0.1207
     38 C           0.1039    0.0764   -2.7188 C.3     1  LIG1        0.0788
     39 H          -0.2973   -0.0463   -3.5823 H       1  LIG1        0.0660
     40 H          -0.5823    0.2402   -2.0676 H       1  LIG1        0.0660
     41 H           0.5924   -0.7137   -2.4774 H       1  LIG1        0.0660
     42 C           1.5406    0.8729   -0.4106 C.ar    1  LIG1       -0.0122
     43 H           1.0525    0.0842   -0.3476 H       1  LIG1        0.0660
     44 C           2.2469    1.3765    0.7209 C.ar    1  LIG1       -0.0144
     45 C           2.2611    0.7020    1.9696 C.ar    1  LIG1       -0.0536
     46 H           1.7975   -0.0993    2.0617 H       1  LIG1        0.0624
     47 C           2.9414    1.2084    3.0345 C.ar    1  LIG1       -0.0572
     48 H           2.9302    0.7461    3.8413 H       1  LIG1        0.0621
     49 O           2.8085   -0.0508    7.6377 O.co2   1  PRO1       -0.2400
     50 OXT         1.4731   -1.7383    8.2532 O.co2   1  PRO1       -0.2400
     51 N          -0.7812   -0.3915    7.8732 N.4     1  PRO1        0.2373
     52 H1         -1.4133    0.1085    8.2510 H       1  PRO1        0.2022
     53 H2         -0.6577   -1.1178    8.3724 H       1  PRO1        0.2022
     54 C           1.6896   -0.5689    7.8998 C.2     1  PRO1        0.4027
     55 CA          0.4945    0.3834    7.7554 C.3     1  PRO1        0.0804
     56 HA          0.5317    1.0764    8.4473 H       1  PRO1        0.0970
     57 CB          0.3859    1.0147    6.3991 C.3     1  PRO1        0.0057
     58 HB1        -0.0938    1.8567    6.4511 H       1  PRO1        0.0327
     59 HB2         1.2658    1.1793    6.0263 H       1  PRO1        0.0327
     60 CG         -0.3439    0.0601    5.5883 C.3     1  PRO1       -0.0069
     61 HG1         0.2776   -0.4999    5.0971 H       1  PRO1        0.0319
     62 HG2        -0.9041    0.5277    4.9496 H       1  PRO1        0.0319
     63 CD         -1.1823   -0.7761    6.4822 C.3     1  PRO1       -0.0327
     64 HD1        -1.0154   -1.7188    6.3259 H       1  PRO1        0.0814
     65 HD2        -2.1242   -0.5969    6.3353 H       1  PRO1        0.0814
     66 O          -0.3237    1.3392   10.8522 O.3     2  LIG2       -0.4802
     67 H          -0.8016    1.7607   10.3361 H       2  LIG2        0.2951
     68 O          -2.1713    1.2026   12.0318 O.2     2  LIG2       -0.2503
     69 O           2.8285    1.4424   19.6718 O.3     2  LIG2       -0.4951
     70 C          -1.0549    0.8443   11.8174 C.2     2  LIG2        0.3119
     71 C          -0.3605   -0.2404   12.6272 C.3     2  LIG2        0.0784
     72 H          -1.0454   -0.8762   12.9224 H       2  LIG2        0.0459
     73 C           0.6583   -1.0112   11.7851 C.3     2  LIG2       -0.0482
     74 H           1.3077   -0.3999   11.4297 H       2  LIG2        0.0241
     75 H           0.2072   -1.4545   11.0631 H       2  LIG2        0.0241
     76 H           1.0999   -1.6630   12.3347 H       2  LIG2        0.0241
     77 C           0.3003    0.3414   13.8722 C.ar    2  LIG2       -0.0334
     78 C           1.0598    1.5247   13.8267 C.ar    2  LIG2       -0.0572
     79 H           1.1206    1.9914   13.0244 H       2  LIG2        0.0621
     80 C           1.7082    2.0073   14.9202 C.ar    2  LIG2       -0.0536
     81 H           2.1894    2.8001   14.8537 H       2  LIG2        0.0624
     82 C           1.6627    1.3234   16.1558 C.ar    2  LIG2       -0.0144
     83 C           2.3416    1.7879   17.3139 C.ar    2  LIG2       -0.0122
     84 H           2.8544    2.5626   17.2744 H       2  LIG2        0.0660
     85 C           2.2399    1.0917   18.4885 C.ar    2  LIG2        0.1207
     86 C           3.6070    2.6240   19.6887 C.3     2  LIG2        0.0788
     87 H           4.3293    2.5403   19.0615 H       2  LIG2        0.0660
     88 H           3.9628    2.7603   20.5698 H       2  LIG2        0.0660
     89 H           3.0577    3.3727   19.4458 H       2  LIG2        0.0660
     90 C           1.4860   -0.0969   18.5518 C.ar    2  LIG2       -0.0194
     91 H           1.4242   -0.5598   19.3560 H       2  LIG2        0.0654
     92 C           0.8518   -0.5724   17.4576 C.ar    2  LIG2       -0.0506
     93 H           0.3685   -1.3650   17.5154 H       2  LIG2        0.0625
     94 C           0.9141    0.1231   16.2190 C.ar    2  LIG2       -0.0174
     95 C           0.2334   -0.3373   15.0649 C.ar    2  LIG2       -0.0501
     96 H          -0.2706   -1.1176   15.1161 H       2  LIG2        0.0627
@<TRIPOS>BOND
     1    39    38    1
     2    21    38    1
     3    21    37    1
     4    38    41    1
     5    38    40    1
     6    36    35    1
     7    35    37   ar
     8    35    33   ar
     9    37    42   ar
    10    34    33    1
    11    33    32   ar
    12    42    43    1
    13    42    44   ar
    14    32    44   ar
    15    32    30   ar
    16    44    45   ar
    17    31    30    1
    18    30    29   ar
    19    45    46    1
    20    45    47   ar
    21    29    47   ar
    22    29    23    1
    23    47    48    1
    24    24    23    1
    25    23    25    1
    26    23    22    1
    27    27    25    1
    28    25    28    1
    29    25    26    1
    30    62    60    1
    31    18    22    2
    32    22    19    1
    33    61    60    1
    34    60    57    1
    35    60    63    1
    36    19    20    1
    37    59    57    1
    38    64    63    1
    39    65    63    1
    40    57    58    1
    41    57    55    1
    42    63    51    1
    43    49    54   ar
    44    55    51    1
    45    55    54    1
    46    55    56    1
    47    51    52    1
    48    51    53    1
    49    54    50   ar
    50     5     3    1
    51     8     7    1
    52     4     3    1
    53     1     6   ar
    54     3     7    1
    55     3    15    1
    56     6     7    1
    57     6     2   ar
    58     7     9    1
    59    15    16    1
    60    15    17    1
    61    15    12    1
    62    67    66    1
    63    11     9    1
    64     9    10    1
    65     9    12    1
    66    66    70    1
    67    75    73    1
    68    12    13    1
    69    12    14    1
    70    74    73    1
    71    73    76    1
    72    73    71    1
    73    70    68    2
    74    70    71    1
    75    71    72    1
    76    71    77    1
    77    79    78    1
    78    78    77   ar
    79    78    80   ar
    80    77    95   ar
    81    81    80    1
    82    80    82   ar
    83    95    96    1
    84    95    94   ar
    85    82    94   ar
    86    82    83   ar
    87    94    92   ar
    88    84    83    1
    89    83    85   ar
    90    92    93    1
    91    92    90   ar
    92    85    90   ar
    93    85    69    1
    94    90    91    1
    95    87    86    1
    96    89    86    1
    97    69    86    1
    98    86    88    1
