@<TRIPOS>MOLECULE
(2S)-2-(6-methoxynaphthalen-2-yl)propanoic acid; ethanol
 40 40 0 0 0
SMALL
GASTEIGER

@<TRIPOS>ATOM
      1 O           1.5488    5.6671   11.3040 O.3     1  LIG1       -0.4951
      2 O           4.5273    4.2699   18.9033 O.3     1  LIG1       -0.4802
      3 H           4.4810    4.9382   19.5428 H       1  LIG1        0.2951
      4 O           2.9269    3.4717   20.2090 O.2     1  LIG1       -0.2503
      5 C           0.4220    6.5294   11.3997 C.3     1  LIG1        0.0788
      6 H           0.5859    7.2059   12.0890 H       1  LIG1        0.0660
      7 H          -0.3709    6.0048   11.6386 H       1  LIG1        0.0660
      8 H           0.2740    6.9702   10.5371 H       1  LIG1        0.0660
      9 C           1.9157    5.0172   12.4332 C.ar    1  LIG1        0.1207
     10 C           3.1284    4.3093   12.3164 C.ar    1  LIG1       -0.0194
     11 H           3.5938    4.3088   11.4883 H       1  LIG1        0.0654
     12 C           3.6352    3.6313   13.3655 C.ar    1  LIG1       -0.0506
     13 H           4.4555    3.1625   13.2673 H       1  LIG1        0.0625
     14 C           2.9642    3.6094   14.6112 C.ar    1  LIG1       -0.0174
     15 C           3.4912    2.9621   15.7347 C.ar    1  LIG1       -0.0501
     16 H           4.3240    2.5109   15.6596 H       1  LIG1        0.0627
     17 C           2.8463    2.9612   16.9274 C.ar    1  LIG1       -0.0334
     18 C           1.5879    3.6076   17.0203 C.ar    1  LIG1       -0.0572
     19 H           1.1111    3.5904   17.8415 H       1  LIG1        0.0621
     20 C           1.0586    4.2497   15.9529 C.ar    1  LIG1       -0.0536
     21 H           0.2189    4.6856   16.0419 H       1  LIG1        0.0624
     22 C           1.7243    4.2865   14.7154 C.ar    1  LIG1       -0.0144
     23 C           1.2252    5.0110   13.6072 C.ar    1  LIG1       -0.0122
     24 H           0.4102    5.4932   13.6821 H       1  LIG1        0.0660
     25 C           3.5967    3.3927   19.2023 C.2     1  LIG1        0.3119
     26 C           3.4615    2.3235   18.1629 C.3     1  LIG1        0.0784
     27 H           4.3796    2.0069   17.9232 H       1  LIG1        0.0459
     28 C           2.6726    1.1333   18.6652 C.3     1  LIG1       -0.0482
     29 H           3.0824    0.7935   19.4879 H       1  LIG1        0.0241
     30 H           2.6742    0.4292   17.9839 H       1  LIG1        0.0241
     31 H           1.7498    1.4079   18.8493 H       1  LIG1        0.0241
     32 O           1.7616    6.8241    7.6529 O.3     1  LIG1       -0.3953
     33 H           1.1321    6.4118    7.1226 H       1  LIG1        0.2094
     34 C           2.7645    5.8689    7.9460 C.3     1  LIG1        0.0414
     35 H           3.0759    5.4416    7.1090 H       1  LIG1        0.0554
     36 H           2.3943    5.1636    8.5345 H       1  LIG1        0.0554
     37 C           3.8954    6.5372    8.6172 C.3     1  LIG1       -0.0418
     38 H           3.5964    6.9011    9.4768 H       1  LIG1        0.0252
     39 H           4.2265    7.2659    8.0517 H       1  LIG1        0.0252
     40 H           4.6146    5.8891    8.7694 H       1  LIG1        0.0252
@<TRIPOS>BOND
     1    35    34    1
     2    33    32    1
     3    32    34    1
     4    34    36    1
     5    34    37    1
     6    39    37    1
     7    37    40    1
     8    37    38    1
     9     8     5    1
    10     1     5    1
    11     1     9    1
    12     5     7    1
    13     5     6    1
    14    11    10    1
    15    10     9   ar
    16    10    12   ar
    17     9    23   ar
    18    13    12    1
    19    12    14   ar
    20    23    24    1
    21    23    22   ar
    22    14    22   ar
    23    14    15   ar
    24    22    20   ar
    25    16    15    1
    26    15    17   ar
    27    20    21    1
    28    20    18   ar
    29    17    18   ar
    30    17    26    1
    31    18    19    1
    32    27    26    1
    33    30    28    1
    34    26    28    1
    35    26    25    1
    36    28    31    1
    37    28    29    1
    38     2    25    1
    39     2     3    1
    40    25     4    2
