@<TRIPOS>MOLECULE
C13  H8  Cl1  N1  O3
 26 28 0 0 0
SMALL
GASTEIGER

@<TRIPOS>ATOM
      1 CL          0.4719   -1.9747   11.8674 Cl      1  LIG1       -0.0835
      2 O           2.2767    3.4460   10.6628 O.2     1  LIG1       -0.4525
      3 C           1.3067    0.0116   10.2406 C.ar    1  LIG1       -0.0319
      4 H           1.2148   -0.6057    9.5239 H       1  LIG1        0.0639
      5 C           1.1450    0.5164   12.6013 C.ar    1  LIG1       -0.0094
      6 H           0.9428    0.2296   13.4845 H       1  LIG1        0.0656
      7 C           1.8535    2.2167   11.0772 C.ar    1  LIG1        0.1664
      8 C           2.1318    2.0569    8.8371 C.ar    1  LIG1        0.0280
      9 C           1.7362    1.3139   10.0109 C.ar    1  LIG1        0.0316
     10 C           1.5664    1.8127   12.3721 C.ar    1  LIG1        0.1701
     11 C           2.8593    4.3636    8.4683 C.ar    1  LIG1       -0.0158
     12 H           3.0661    5.2238    8.8164 H       1  LIG1        0.0657
     13 C           1.0181   -0.3609   11.5413 C.ar    1  LIG1        0.0439
     14 C           2.2389    1.7890    7.4706 C.ar    1  LIG1       -0.0501
     15 H           2.0368    0.9281    7.1240 H       1  LIG1        0.0625
     16 O           1.6726    2.2266   14.6217 O.2     1  LIG1       -0.1260
     17 C           2.4442    3.3337    9.2888 C.ar    1  LIG1        0.1366
     18 O           1.8531    3.8893   13.2919 O.2     1  LIG1       -0.1260
     19 N           1.7011    2.7132   13.5100 N.pl3   1  LIG1        0.0601
     20 C           2.9612    4.0853    7.1127 C.ar    1  LIG1       -0.0469
     21 C           2.6464    2.8091    6.6384 C.ar    1  LIG1       -0.0580
     22 H           2.7167    2.6387    5.7070 H       1  LIG1        0.0620
     23 C           3.4024    5.1643    6.1580 C.3     1  LIG1       -0.0396
     24 H           4.0622    5.7394    6.5971 H       1  LIG1        0.0278
     25 H           2.6269    5.7014    5.8916 H       1  LIG1        0.0278
     26 H           3.8039    4.7539    5.3637 H       1  LIG1        0.0278
@<TRIPOS>BOND
     1    26    23    1
     2    22    21    1
     3    25    23    1
     4    23    24    1
     5    23    20    1
     6    21    20   ar
     7    21    14   ar
     8    20    11   ar
     9    15    14    1
    10    14     8   ar
    11    11    12    1
    12    11    17   ar
    13     8    17   ar
    14     8     9   ar
    15    17     2   ar
    16     4     3    1
    17     9     3   ar
    18     9     7   ar
    19     3    13   ar
    20     2     7   ar
    21     7    10   ar
    22    13     1    1
    23    13     5   ar
    24    10     5   ar
    25    10    19    1
    26     5     6    1
    27    18    19    2
    28    19    16    2
