@<TRIPOS>MOLECULE
7235443.cif
 57 60 0 0 0
SMALL
GASTEIGER

@<TRIPOS>ATOM
      1 C          -0.4933    4.0630   12.7492 C.ar    1  LIG1       -0.0027
      2 C           0.7410    4.4930   12.2534 C.ar    1  LIG1       -0.0529
      3 H           0.9985    5.3799   12.3595 H       1  LIG1        0.0624
      4 C           1.5735    3.6150   11.6119 C.ar    1  LIG1       -0.0611
      5 H           2.3924    3.9121   11.2883 H       1  LIG1        0.0618
      6 C           1.2119    2.3022   11.4411 C.ar    1  LIG1       -0.0617
      7 H           1.7791    1.7172   10.9941 H       1  LIG1        0.0618
      8 C           0.0132    1.8549   11.9320 C.ar    1  LIG1       -0.0611
      9 H          -0.2260    0.9617   11.8320 H       1  LIG1        0.0618
     10 C          -0.8486    2.7336   12.5810 C.ar    1  LIG1       -0.0529
     11 H          -1.6666    2.4282   12.9032 H       1  LIG1        0.0624
     12 C          -1.3200    5.0102   13.5295 C.2     1  LIG1        0.0637
     13 C          -2.8185    4.8683   13.5076 C.3     1  LIG1        0.1000
     14 C          -3.4427    4.4376   12.1871 C.2     1  LIG1        0.1767
     15 C          -3.4547    5.4104   11.0688 C.ar    1  LIG1        0.0184
     16 C          -2.9628    6.6962   11.1946 C.ar    1  LIG1       -0.0512
     17 H          -2.5640    6.9600   11.9923 H       1  LIG1        0.0625
     18 C          -3.0580    7.5956   10.1463 C.ar    1  LIG1       -0.0611
     19 H          -2.7061    8.4528   10.2313 H       1  LIG1        0.0618
     20 C          -3.6801    7.2100    8.9698 C.ar    1  LIG1       -0.0617
     21 H          -3.7688    7.8172    8.2715 H       1  LIG1        0.0618
     22 C          -4.1636    5.9373    8.8344 C.ar    1  LIG1       -0.0611
     23 H          -4.5726    5.6818    8.0402 H       1  LIG1        0.0618
     24 C          -4.0462    5.0296    9.8691 C.ar    1  LIG1       -0.0512
     25 H          -4.3638    4.1620    9.7626 H       1  LIG1        0.0625
     26 C          -1.3851    6.8811   14.9099 C.2     1  LIG1        0.0243
     27 H          -0.8953    7.5430   15.3419 H       1  LIG1        0.0826
     28 C          -2.7088    6.9205   15.0122 C.2     1  LIG1       -0.0604
     29 H          -3.1116    7.6067   15.4940 H       1  LIG1        0.0590
     30 C          -3.5409    5.9020   14.3786 C.3     1  LIG1        0.0156
     31 H          -4.4000    6.2191   14.0292 H       1  LIG1        0.0368
     32 C          -3.5096    4.4494   14.8028 C.3     1  LIG1        0.1038
     33 C          -2.6652    3.9688   15.9698 C.3     1  LIG1        0.0625
     34 H          -2.3118    3.0923   15.7517 H       1  LIG1        0.0389
     35 H          -1.9120    4.5705   16.0722 H       1  LIG1        0.0389
     36 C          -3.3820    3.8781   17.2855 C.2     1  LIG1        0.3082
     37 C          -4.9927    4.8883   18.6900 C.3     1  LIG1        0.0896
     38 H          -4.3589    4.9299   19.4238 H       1  LIG1        0.0694
     39 H          -5.5358    4.0921   18.7989 H       1  LIG1        0.0694
     40 C          -5.8384    6.0786   18.6874 C.3     1  LIG1       -0.0306
     41 H          -5.2877    6.8617   18.6103 H       1  LIG1        0.0262
     42 H          -6.3385    6.1174   19.5050 H       1  LIG1        0.0262
     43 H          -6.4424    6.0391   17.9428 H       1  LIG1        0.0262
     44 C          -4.8603    3.7999   14.6314 C.2     1  LIG1        0.3158
     45 C          -6.1897    1.9353   15.2850 C.3     1  LIG1        0.0897
     46 H          -6.7002    2.1679   14.4938 H       1  LIG1        0.0694
     47 H          -6.0374    0.9770   15.2708 H       1  LIG1        0.0694
     48 C          -6.9080    2.2635   16.4009 C.3     1  LIG1       -0.0306
     49 H          -6.4201    2.0017   17.1860 H       1  LIG1        0.0262
     50 H          -7.7520    1.8072   16.3826 H       1  LIG1        0.0262
     51 H          -7.0576    3.2113   16.4192 H       1  LIG1        0.0262
     52 N          -0.6849    5.9124   14.1982 N.2     1  LIG1       -0.2585
     53 O          -3.9207    3.3242   12.0773 O.2     1  LIG1       -0.2910
     54 O          -3.1472    3.0694   18.1341 O.2     1  LIG1       -0.2508
     55 O          -4.2850    4.8420   17.4189 O.3     1  LIG1       -0.4649
     56 O          -5.7888    4.2963   14.0586 O.2     1  LIG1       -0.2501
     57 O          -4.9051    2.6242   15.2471 O.3     1  LIG1       -0.4645
@<TRIPOS>BOND
     1    23    22    1
     2    21    20    1
     3    22    20   ar
     4    22    24   ar
     5    20    18   ar
     6    25    24    1
     7    24    15   ar
     8    18    19    1
     9    18    16   ar
    10     7     6    1
    11    15    16   ar
    12    15    14    1
    13    16    17    1
    14     5     4    1
    15     6     4   ar
    16     6     8   ar
    17     4     2   ar
    18     9     8    1
    19     8    10   ar
    20    53    14    2
    21    14    13    1
    22     2     3    1
    23     2     1   ar
    24    10     1   ar
    25    10    11    1
    26     1    12    1
    27    13    12    1
    28    13    30    1
    29    13    32    1
    30    12    52    2
    31    31    30    1
    32    56    44    2
    33    52    26    1
    34    30    32    1
    35    30    28    1
    36    46    45    1
    37    44    32    1
    38    44    57    1
    39    32    33    1
    40    26    28    2
    41    26    27    1
    42    28    29    1
    43    57    45    1
    44    47    45    1
    45    45    48    1
    46    34    33    1
    47    33    35    1
    48    33    36    1
    49    50    48    1
    50    48    51    1
    51    48    49    1
    52    36    55    1
    53    36    54    2
    54    55    37    1
    55    43    40    1
    56    41    40    1
    57    40    37    1
    58    40    42    1
    59    37    39    1
    60    37    38    1
