@<TRIPOS>MOLECULE
7236018.cif
 51 53 0 0 0
SMALL
GASTEIGER

@<TRIPOS>ATOM
      1 O           2.1711    6.3115    3.3056 O.3     1  LIG1       -0.3455
      2 O           3.2460    4.7143    1.9740 O.3     1  LIG1       -0.3455
      3 O           7.9685    5.5255    0.8436 O.3     1  LIG1       -0.4948
      4 O           4.0046    7.6580    1.7411 O.2     1  LIG1       -0.2910
      5 C           4.4329    6.0156    5.1870 C.2     1  LIG1       -0.0404
      6 C           7.7210    5.2944    3.1750 C.ar    1  LIG1        0.0018
      7 O           3.0120    6.3706    9.0970 O.2     1  LIG1       -0.1267
      8 C           3.3881    5.6750    2.9961 C.3     1  LIG1        0.2372
      9 C           6.2245    5.3336    2.9506 C.3     1  LIG1        0.0016
     10 C           4.3258    6.8311    2.5502 C.2     1  LIG1        0.1999
     11 O          10.2822    5.2081    5.8387 O.3     1  LIG1       -0.4951
     12 C           3.9347    6.0708    6.5401 C.2     1  LIG1       -0.0355
     13 C           9.6494    5.2840    4.6229 C.ar    1  LIG1        0.1206
     14 C           3.0940    5.2121    7.0953 C.2     1  LIG1        0.0904
     15 C           4.0527    4.9602    4.1786 C.3     1  LIG1        0.0460
     16 N           2.7010    5.3528    8.4774 N.pl3   1  LIG1        0.0492
     17 O           2.0675    4.4301    8.9769 O.2     1  LIG1       -0.1267
     18 C           8.2742    5.2177    4.4436 C.ar    1  LIG1       -0.0130
     19 C           5.3834    4.3014    3.7200 C.3     1  LIG1       -0.0329
     20 C           9.9450    5.4831    2.2671 C.ar    1  LIG1       -0.0162
     21 C           8.5721    5.4231    2.0790 C.ar    1  LIG1        0.1238
     22 C           5.3103    6.9126    4.6974 C.2     1  LIG1       -0.0694
     23 C           5.6550    6.7695    3.2546 C.3     1  LIG1        0.0484
     24 C          10.4708    5.4279    3.5290 C.ar    1  LIG1       -0.0165
     25 C           1.1357    5.4575    3.8051 C.3     1  LIG1        0.0401
     26 C           2.5292    5.1265    0.8058 C.3     1  LIG1        0.0401
     27 C           8.7714    5.4527   -0.3135 C.3     1  LIG1        0.0788
     28 C           9.4820    5.1841    6.9994 C.3     1  LIG1        0.0788
     29 H          11.3781    5.5167    3.6890 H       1  LIG1        0.0655
     30 H           7.6801    5.1169    5.2155 H       1  LIG1        0.0658
     31 H           8.1687    5.4607   -1.0438 H       1  LIG1        0.0660
     32 H           8.9864    6.0444    7.0290 H       1  LIG1        0.0660
     33 H          10.0691    5.1489    7.7368 H       1  LIG1        0.0660
     34 H           9.2845    4.6052   -0.2724 H       1  LIG1        0.0660
     35 H           6.2525    7.4355    2.9078 H       1  LIG1        0.0428
     36 H           5.8292    3.9576    4.4930 H       1  LIG1        0.0279
     37 H           6.0945    5.1809    1.9913 H       1  LIG1        0.0360
     38 H           5.1999    3.4699    3.1117 H       1  LIG1        0.0279
     39 H           3.4730    4.2774    4.5306 H       1  LIG1        0.0406
     40 H           5.6283    7.6194    5.2335 H       1  LIG1        0.0582
     41 H          10.5064    5.5806    1.5020 H       1  LIG1        0.0655
     42 H           2.7202    4.4293    6.7371 H       1  LIG1        0.0880
     43 H           4.2834    6.8039    7.0682 H       1  LIG1        0.0637
     44 H           1.2781    4.5093    3.5781 H       1  LIG1        0.0525
     45 H           1.0442    5.5167    4.7458 H       1  LIG1        0.0525
     46 H           1.6390    5.3248    1.0601 H       1  LIG1        0.0525
     47 H           0.3100    5.7805    3.5325 H       1  LIG1        0.0525
     48 H           2.5495    4.2934    0.2283 H       1  LIG1        0.0525
     49 H           9.3171    6.1483   -0.2446 H       1  LIG1        0.0660
     50 H           2.9029    5.9804    0.3588 H       1  LIG1        0.0525
     51 H           8.8636    4.4453    7.0111 H       1  LIG1        0.0660
@<TRIPOS>BOND
     1    31    27    1
     2    27    34    1
     3    27    49    1
     4    27     3    1
     5    48    26    1
     6    50    26    1
     7    26    46    1
     8    26     2    1
     9     3    21    1
    10    41    20    1
    11     4    10    2
    12     2     8    1
    13    37     9    1
    14    21    20   ar
    15    21     6   ar
    16    20    24   ar
    17    10     8    1
    18    10    23    1
    19    35    23    1
    20     9     6    1
    21     9    23    1
    22     9    19    1
    23     8     1    1
    24     8    15    1
    25    38    19    1
    26     6    18   ar
    27    23    22    1
    28     1    25    1
    29    24    29    1
    30    24    13   ar
    31    47    25    1
    32    44    25    1
    33    19    15    1
    34    19    36    1
    35    25    45    1
    36    15    39    1
    37    15     5    1
    38    18    13   ar
    39    18    30    1
    40    13    11    1
    41    22     5    2
    42    22    40    1
    43     5    12    1
    44    11    28    1
    45    12    43    1
    46    12    14    2
    47    42    14    1
    48    28    51    1
    49    28    32    1
    50    28    33    1
    51    14    16    1
    52    16    17    2
    53    16     7    2
