@<TRIPOS>MOLECULE
C25 H22 P, C17 H14 N O3 S, C H2 Cl2
 89 93 0 0 0
SMALL
GASTEIGER

@<TRIPOS>ATOM
      1 S          12.7527    9.7811    8.3370 S.3     1  LIG1        0.1397
      2 O          12.5984   10.5411    9.5706 O.3     1  LIG1       -0.0427
      3 O          13.9290    8.9238    8.3210 O.2     1  LIG1       -0.1397
      4 O          12.6562   10.6357    7.1581 O.2     1  LIG1       -0.1397
      5 N           7.2863    3.7000    7.7298 N.pl3   1  LIG1       -0.3145
      6 H           7.5791    2.8692    7.5889 H       1  LIG1        0.1522
      7 C          11.3632    8.6817    8.2467 C.ar    1  LIG1        0.1202
      8 C          10.0646    9.1997    7.9910 C.ar    1  LIG1       -0.0337
      9 H           9.9353   10.1359    7.8936 H       1  LIG1        0.0637
     10 C           8.9963    8.3392    7.8853 C.ar    1  LIG1       -0.0521
     11 H           8.1300    8.6924    7.7221 H       1  LIG1        0.0624
     12 C           9.1609    6.9317    8.0157 C.ar    1  LIG1       -0.0160
     13 C           8.0822    6.0270    7.8388 C.ar    1  LIG1       -0.0328
     14 H           7.2142    6.3643    7.6521 H       1  LIG1        0.0642
     15 C           8.2760    4.6618    7.9336 C.ar    1  LIG1        0.0319
     16 C           9.5819    4.1705    8.2549 C.ar    1  LIG1       -0.0399
     17 H           9.7182    3.2350    8.3507 H       1  LIG1        0.0636
     18 C          10.6354    5.0240    8.4235 C.ar    1  LIG1       -0.0522
     19 H          11.4944    4.6727    8.6285 H       1  LIG1        0.0624
     20 C          10.4675    6.4333    8.2984 C.ar    1  LIG1       -0.0159
     21 C          11.5524    7.3322    8.4107 C.ar    1  LIG1       -0.0266
     22 H          12.4209    6.9990    8.6017 H       1  LIG1        0.0643
     23 C           6.1104    3.9386    6.9704 C.ar    1  LIG1        0.0313
     24 C           5.1413    4.8578    7.3628 C.ar    1  LIG1       -0.0403
     25 H           5.2480    5.3507    8.1667 H       1  LIG1        0.0636
     26 C           4.0087    5.0495    6.5656 C.ar    1  LIG1       -0.0571
     27 H           3.3543    5.6820    6.8386 H       1  LIG1        0.0621
     28 C           3.8132    4.3437    5.3870 C.ar    1  LIG1       -0.0503
     29 C           4.7736    3.3998    5.0200 C.ar    1  LIG1       -0.0571
     30 H           4.6567    2.8973    4.2218 H       1  LIG1        0.0621
     31 C           5.9034    3.1861    5.8095 C.ar    1  LIG1       -0.0403
     32 H           6.5369    2.5243    5.5566 H       1  LIG1        0.0636
     33 C           2.5887    4.5860    4.5351 C.3     1  LIG1       -0.0397
     34 H           1.8356    4.8370    5.1091 H       1  LIG1        0.0278
     35 H           2.3655    3.7685    4.0426 H       1  LIG1        0.0278
     36 H           2.7708    5.3103    3.8999 H       1  LIG1        0.0278
     37 P           8.7623    7.1986    3.0643 P.3     2  LIG2        0.1170
     38 C           8.1088    7.6287    1.4208 C.3     2  LIG2        0.0998
     39 H           8.8032    7.4573    0.7369 H       2  LIG2        0.0764
     40 H           7.3297    7.0524    1.2169 H       2  LIG2        0.0764
     41 C           7.6896    9.0796    1.3574 C.ar    2  LIG2       -0.0093
     42 C           6.3403    9.4115    1.5044 C.ar    2  LIG2       -0.0551
     43 H           5.6970    8.7219    1.6232 H       2  LIG2        0.0621
     44 C           5.9267   10.7350    1.4775 C.ar    2  LIG2       -0.0614
     45 H           5.0057   10.9460    1.5695 H       2  LIG2        0.0618
     46 C           6.8571   11.7520    1.3185 C.ar    2  LIG2       -0.0617
     47 H           6.5756   12.6596    1.3079 H       2  LIG2        0.0618
     48 C           8.2009   11.4384    1.1738 C.ar    2  LIG2       -0.0614
     49 H           8.8385   12.1332    1.0598 H       2  LIG2        0.0618
     50 C           8.6230   10.1025    1.1968 C.ar    2  LIG2       -0.0551
     51 H           9.5452    9.8944    1.1029 H       2  LIG2        0.0621
     52 C           8.7217    5.4178    3.2741 C.ar    2  LIG2        0.1065
     53 C           9.0772    4.8793    4.5169 C.ar    2  LIG2       -0.0188
     54 H           9.2923    5.4549    5.2404 H       2  LIG2        0.0657
     55 C           9.1146    3.5049    4.6884 C.ar    2  LIG2       -0.0580
     56 H           9.3648    3.1355    5.5269 H       2  LIG2        0.0619
     57 C           8.7845    2.6684    3.6325 C.ar    2  LIG2       -0.0615
     58 H           8.8021    1.7266    3.7542 H       2  LIG2        0.0618
     59 C           8.4324    3.1958    2.4051 C.ar    2  LIG2       -0.0580
     60 H           8.2070    2.6149    1.6883 H       2  LIG2        0.0619
     61 C           8.4058    4.5742    2.2144 C.ar    2  LIG2       -0.0188
     62 H           8.1752    4.9360    1.3664 H       2  LIG2        0.0657
     63 C          10.4491    7.7920    3.2424 C.ar    2  LIG2        0.1065
     64 C          11.2747    7.8895    2.1210 C.ar    2  LIG2       -0.0188
     65 H          10.9326    7.6861    1.2581 H       2  LIG2        0.0657
     66 C          12.6001    8.2865    2.2700 C.ar    2  LIG2       -0.0580
     67 H          13.1585    8.3704    1.5063 H       2  LIG2        0.0619
     68 C          13.1053    8.5584    3.5309 C.ar    2  LIG2       -0.0615
     69 H          14.0133    8.8176    3.6296 H       2  LIG2        0.0618
     70 C          12.2895    8.4549    4.6520 C.ar    2  LIG2       -0.0580
     71 H          12.6437    8.6384    5.5135 H       2  LIG2        0.0619
     72 C          10.9584    8.0813    4.5156 C.ar    2  LIG2       -0.0188
     73 H          10.3965    8.0234    5.2797 H       2  LIG2        0.0657
     74 C           7.7274    8.0023    4.2896 C.ar    2  LIG2        0.1065
     75 C           6.6394    7.3287    4.8651 C.ar    2  LIG2       -0.0188
     76 H           6.5075    6.4036    4.7009 H       2  LIG2        0.0657
     77 C           5.7540    8.0323    5.6811 C.ar    2  LIG2       -0.0580
     78 H           5.0342    7.5761    6.0999 H       2  LIG2        0.0619
     79 C           5.9188    9.4029    5.8891 C.ar    2  LIG2       -0.0615
     80 H           5.2919    9.8829    6.4170 H       2  LIG2        0.0618
     81 C           7.0045   10.0652    5.3199 C.ar    2  LIG2       -0.0580
     82 H           7.1268   10.9949    5.4761 H       2  LIG2        0.0619
     83 C           7.9081    9.3727    4.5265 C.ar    2  LIG2       -0.0188
     84 H           8.6499    9.8278    4.1442 H       2  LIG2        0.0657
     85 C           6.1868   10.3565    9.8138 C.3     1  LIG1        0.0970
     86 H           5.2641   10.6530   10.0151 H       1  LIG1        0.0597
     87 H           6.1339    9.4873    9.3424 H       1  LIG1        0.0597
     88 CL          7.0810   10.1542   11.3199 Cl      1  LIG1       -0.1083
     89 CL          6.9778   11.5531    8.7614 Cl      1  LIG1       -0.1083
@<TRIPOS>BOND
     1    39    38    1
     2    49    48    1
     3    51    50    1
     4    48    50   ar
     5    48    46   ar
     6    50    41   ar
     7    40    38    1
     8    65    64    1
     9    47    46    1
    10    46    44   ar
    11    41    38    1
    12    41    42   ar
    13    62    61    1
    14    38    37    1
    15    44    42   ar
    16    44    45    1
    17    42    43    1
    18    67    66    1
    19    60    59    1
    20    64    66   ar
    21    64    63   ar
    22    61    59   ar
    23    61    52   ar
    24    66    68   ar
    25    59    57   ar
    26    37    63    1
    27    37    52    1
    28    37    74    1
    29    63    72   ar
    30    52    53   ar
    31    68    69    1
    32    68    70   ar
    33    57    58    1
    34    57    55   ar
    35    36    33    1
    36    35    33    1
    37    84    83    1
    38    30    29    1
    39    74    83   ar
    40    74    75   ar
    41    72    70   ar
    42    72    73    1
    43    53    55   ar
    44    53    54    1
    45    83    81   ar
    46    33    34    1
    47    33    28    1
    48    70    71    1
    49    55    56    1
    50    76    75    1
    51    75    77   ar
    52    29    28   ar
    53    29    31   ar
    54    81    82    1
    55    81    79   ar
    56    28    26   ar
    57    32    31    1
    58    77    79   ar
    59    77    78    1
    60    31    23   ar
    61    79    80    1
    62    26    27    1
    63    26    24   ar
    64    23    24   ar
    65    23     5    1
    66     4     1    2
    67    24    25    1
    68     6     5    1
    69    14    13    1
    70    11    10    1
    71     5    15    1
    72    13    15   ar
    73    13    12   ar
    74    10     8   ar
    75    10    12   ar
    76     9     8    1
    77    15    16   ar
    78     8     7   ar
    79    12    20   ar
    80     7     1    1
    81     7    21   ar
    82    16    17    1
    83    16    18   ar
    84    20    21   ar
    85    20    18   ar
    86     3     1    2
    87     1     2    1
    88    21    22    1
    89    18    19    1
    90    89    85    1
    91    87    85    1
    92    85    86    1
    93    85    88    1
