@<TRIPOS>MOLECULE
C21 H16 N2 O3
 42 45 0 0 0
SMALL
GASTEIGER

@<TRIPOS>ATOM
      1 O           5.9401    5.0819    3.1382 O.3     1  LIG1       -0.5061
      2 H           5.3859    4.6526    2.7139 H       1  LIG1        0.2922
      3 O           3.0223    2.7738    2.4500 O.2     1  LIG1       -0.2730
      4 O           1.5750   -0.4349    2.5260 O.3     1  LIG1       -0.4554
      5 N           3.7772    3.4385    0.4436 N.am    1  LIG1       -0.2062
      6 H           3.7030    3.4014   -0.4120 H       1  LIG1        0.1772
      7 N           4.6450    4.3219    1.0429 N.2     1  LIG1       -0.1876
      8 C           6.3672    5.9268    0.9183 C.ar    1  LIG1        0.0360
      9 C           5.3766    5.0684    0.3091 C.2     1  LIG1        0.0563
     10 H           5.2728    5.0595   -0.6153 H       1  LIG1        0.0852
     11 C           3.0501    2.6387    1.2331 C.2     1  LIG1        0.2442
     12 C           2.3151    1.5060    0.5271 C.3     1  LIG1        0.0939
     13 H           2.2775    1.6888   -0.4345 H       1  LIG1        0.0495
     14 C           6.6374    5.8788    2.2933 C.ar    1  LIG1        0.1255
     15 C           3.1009    0.2354    0.7705 C.ar    1  LIG1        0.0113
     16 C           2.7061   -0.6484    1.7601 C.ar    1  LIG1        0.1327
     17 C           0.9178    1.3715    1.0696 C.ar    1  LIG1        0.0113
     18 C          -0.1152    2.1909    0.6396 C.ar    1  LIG1       -0.0540
     19 H           0.0458    2.8109   -0.0337 H       1  LIG1        0.0622
     20 C           7.6497    6.6477    2.8290 C.ar    1  LIG1       -0.0195
     21 H           7.8494    6.5851    3.7355 H       1  LIG1        0.0654
     22 C          -1.6287    1.1901    2.1782 C.ar    1  LIG1       -0.0583
     23 H          -2.4764    1.1391    2.5584 H       1  LIG1        0.0619
     24 C           4.2501   -0.0669    0.0590 C.ar    1  LIG1       -0.0540
     25 H           4.5308    0.5066   -0.6171 H       1  LIG1        0.0622
     26 C          -0.6350    0.3536    2.6043 C.ar    1  LIG1       -0.0190
     27 H          -0.8081   -0.2766    3.2654 H       1  LIG1        0.0654
     28 C           0.6323    0.4472    2.0464 C.ar    1  LIG1        0.1327
     29 C           7.1211    6.7980    0.1274 C.ar    1  LIG1       -0.0496
     30 H           6.9595    6.8435   -0.7866 H       1  LIG1        0.0625
     31 C           3.4255   -1.7885    2.0359 C.ar    1  LIG1       -0.0190
     32 H           3.1414   -2.3722    2.7017 H       1  LIG1        0.0654
     33 C          -1.3735    2.1025    1.1902 C.ar    1  LIG1       -0.0612
     34 H          -2.0520    2.6635    0.8906 H       1  LIG1        0.0618
     35 C           4.9825   -1.1935    0.3296 C.ar    1  LIG1       -0.0612
     36 H           5.7562   -1.3737   -0.1545 H       1  LIG1        0.0618
     37 C           8.1013    7.5916    0.6855 C.ar    1  LIG1       -0.0609
     38 H           8.5836    8.1821    0.1536 H       1  LIG1        0.0618
     39 C           4.5709   -2.0594    1.3185 C.ar    1  LIG1       -0.0583
     40 H           5.0656   -2.8245    1.5021 H       1  LIG1        0.0619
     41 C           8.3612    7.5032    2.0302 C.ar    1  LIG1       -0.0583
     42 H           9.0295    8.0302    2.4048 H       1  LIG1        0.0619
@<TRIPOS>BOND
     1    30    29    1
     2    25    24    1
     3    10     9    1
     4    13    12    1
     5     6     5    1
     6    36    35    1
     7    19    18    1
     8    24    35   ar
     9    24    15   ar
    10    29    37   ar
    11    29     8   ar
    12    38    37    1
    13     9     8    1
    14     9     7    2
    15    35    39   ar
    16     5     7    1
    17     5    11   am
    18    12    15    1
    19    12    17    1
    20    12    11    1
    21    18    17   ar
    22    18    33   ar
    23    37    41   ar
    24    15    16   ar
    25    34    33    1
    26     8    14   ar
    27    17    28   ar
    28    33    22   ar
    29    11     3    2
    30    39    40    1
    31    39    31   ar
    32    16    31   ar
    33    16     4    1
    34    41    42    1
    35    41    20   ar
    36    31    32    1
    37    28     4    1
    38    28    26   ar
    39    22    23    1
    40    22    26   ar
    41    14    20   ar
    42    14     1    1
    43    26    27    1
    44     2     1    1
    45    20    21    1
