@<TRIPOS>MOLECULE
C28 H36 B N
 66 68 0 0 0
SMALL
GASTEIGER

@<TRIPOS>ATOM
      1 C           7.5482   19.6086   -0.8380 C.3     1  LIG1        0.0000
      2 H           8.4379   19.9365   -0.6858 H       1  LIG1        0.0000
      3 H           6.9387   20.3485   -0.8859 H       1  LIG1        0.0000
      4 H           7.5236   19.1208   -1.6636 H       1  LIG1        0.0000
      5 C           7.1501   18.6999    0.2930 C.ar    1  LIG1        0.0000
      6 C           8.0924   18.0772    1.0917 C.ar    1  LIG1        0.0000
      7 H           8.9939   18.1859    0.8892 H       1  LIG1        0.0000
      8 C           7.7392   17.2929    2.1879 C.ar    1  LIG1        0.0000
      9 C           6.3717   17.0909    2.5085 C.ar    1  LIG1        0.0000
     10 C           4.7868   15.2894    3.8574 C.ar    1  LIG1        0.0000
     11 C           3.6451   15.4305    4.6810 C.ar    1  LIG1        0.0000
     12 C           2.6918   14.4177    4.7289 C.ar    1  LIG1        0.0000
     13 H           1.9422   14.5309    5.2663 H       1  LIG1        0.0000
     14 C           2.8217   13.2454    3.9995 C.ar    1  LIG1        0.0000
     15 C           1.8124   12.1270    4.1196 C.3     1  LIG1        0.0000
     16 H           1.6171   11.9695    5.0465 H       1  LIG1        0.0000
     17 H           2.1731   11.3275    3.7275 H       1  LIG1        0.0000
     18 H           1.0059   12.3732    3.6585 H       1  LIG1        0.0000
     19 C           3.3870   16.6926    5.4655 C.3     1  LIG1        0.0000
     20 H           4.2223   17.0674    5.7520 H       1  LIG1        0.0000
     21 H           2.8480   16.4883    6.2343 H       1  LIG1        0.0000
     22 H           2.9252   17.3255    4.9120 H       1  LIG1        0.0000
     23 C           8.8615   16.6655    2.9823 C.3     1  LIG1        0.0000
     24 H           9.6331   16.5627    2.4215 H       1  LIG1        0.0000
     25 H           8.5830   15.8049    3.3042 H       1  LIG1        0.0000
     26 H           9.0805   17.2296    3.7275 H       1  LIG1        0.0000
     27 C           5.8114   18.4523    0.5676 C.ar    1  LIG1        0.0000
     28 H           5.1629   18.8362    0.0230 H       1  LIG1        0.0000
     29 C           5.4074   17.6507    1.6278 C.ar    1  LIG1        0.0000
     30 C           3.9201   17.4529    1.8184 C.3     1  LIG1        0.0000
     31 H           3.6977   16.5330    1.6636 H       1  LIG1        0.0000
     32 H           3.4414   18.0072    1.1976 H       1  LIG1        0.0000
     33 H           3.6782   17.6945    2.7168 H       1  LIG1        0.0000
     34 C           6.7452   16.7598    5.1613 C.ar    1  LIG1        0.0000
     35 C           6.9905   18.1260    5.4547 C.ar    1  LIG1        0.0000
     36 C           6.1781   19.1989    4.7669 C.3     1  LIG1        0.0000
     37 H           5.5364   18.7882    4.1835 H       1  LIG1        0.0000
     38 H           6.7613   19.7644    4.2557 H       1  LIG1        0.0000
     39 H           5.7189   19.7247    5.4271 H       1  LIG1        0.0000
     40 C           7.9039   18.5041    6.4390 C.ar    1  LIG1        0.0000
     41 C           8.5805   17.5156    7.1744 C.ar    1  LIG1        0.0000
     42 C           8.3012   16.1547    6.9699 C.ar    1  LIG1        0.0000
     43 C           9.0092   15.1279    7.8309 C.3     1  LIG1        0.0000
     44 H           9.9557   15.2854    7.8027 H       1  LIG1        0.0000
     45 H           8.8207   14.2479    7.4976 H       1  LIG1        0.0000
     46 H           8.6993   15.2010    8.7379 H       1  LIG1        0.0000
     47 C           7.3844   15.7890    5.9771 C.ar    1  LIG1        0.0000
     48 C           7.1586   14.3121    5.7562 C.3     1  LIG1        0.0000
     49 H           6.4362   14.1884    5.1351 H       1  LIG1        0.0000
     50 H           6.9387   13.8938    6.5920 H       1  LIG1        0.0000
     51 H           7.9574   13.9154    5.4009 H       1  LIG1        0.0000
     52 N           9.4913   17.8964    8.1509 N.pl3   1  LIG1        0.0000
     53 C           4.8794   14.1260    3.0597 C.ar    1  LIG1        0.0000
     54 C           3.9133   13.1299    3.1555 C.ar    1  LIG1        0.0000
     55 H           4.0033   12.3633    2.6381 H       1  LIG1        0.0000
     56 C           6.0568   13.9026    2.1400 C.3     1  LIG1        0.0000
     57 H           6.0474   14.5623    1.4437 H       1  LIG1        0.0000
     58 H           5.9982   13.0268    1.7522 H       1  LIG1        0.0000
     59 H           6.8725   13.9766    2.6414 H       1  LIG1        0.0000
     60 B           5.9473   16.3677    3.8535 B       1  LIG1        0.0000
     61 C           8.1739   19.9474    6.7862 C.3     1  LIG1        0.0000
     62 H           7.7206   20.5173    6.1621 H       1  LIG1        0.0000
     63 H           9.1187   20.1152    6.7462 H       1  LIG1        0.0000
     64 H           7.8555   20.1285    7.6747 H       1  LIG1        0.0000
     65 H           9.6942   18.7617    8.1702 H       1  LIG1        0.0000
     66 H          10.0253   17.2610    8.5705 H       1  LIG1        0.0000
@<TRIPOS>BOND
     1     4     1    1
     2     3     1    1
     3     1     2    1
     4     1     5    1
     5    28    27    1
     6     5    27   ar
     7     5     6   ar
     8    27    29   ar
     9     7     6    1
    10     6     8   ar
    11    32    30    1
    12    57    56    1
    13    29    30    1
    14    29     9   ar
    15    31    30    1
    16    58    56    1
    17    30    33    1
    18    56    59    1
    19    56    53    1
    20     8     9   ar
    21     8    23    1
    22    24    23    1
    23     9    60    1
    24    55    54    1
    25    23    25    1
    26    23    26    1
    27    53    54   ar
    28    53    10   ar
    29    54    14   ar
    30    18    15    1
    31    17    15    1
    32    60    10    1
    33    60    34    1
    34    10    11   ar
    35    14    15    1
    36    14    12   ar
    37    15    16    1
    38    37    36    1
    39    38    36    1
    40    11    12   ar
    41    11    19    1
    42    12    13    1
    43    36    39    1
    44    36    35    1
    45    22    19    1
    46    49    48    1
    47    34    35   ar
    48    34    47   ar
    49    51    48    1
    50    35    40   ar
    51    19    20    1
    52    19    21    1
    53    48    47    1
    54    48    50    1
    55    47    42   ar
    56    62    61    1
    57    40    61    1
    58    40    41   ar
    59    63    61    1
    60    61    64    1
    61    42    41   ar
    62    42    43    1
    63    41    52    1
    64    45    43    1
    65    44    43    1
    66    43    46    1
    67    52    65    1
    68    52    66    1
