@<TRIPOS>MOLECULE
AP-BIN-8
 46 49 0 0 0
SMALL
GASTEIGER

@<TRIPOS>ATOM
      1 CL          0.8788    5.2499    7.3805 Cl      1  LIG1       -0.0812
      2 O          -3.0793    7.2849   12.0415 O.2     1  LIG1       -0.2656
      3 N          -4.7774    6.8200   10.6719 N.ar    1  LIG1       -0.2284
      4 O          -4.6113    8.7495    6.8768 O.3     1  LIG1       -0.4615
      5 N          -6.0532    6.2703   10.4212 N.ar    1  LIG1       -0.1983
      6 C          -4.7754    5.7944   12.8375 C.ar    1  LIG1        0.0532
      7 N          -7.6673    6.3693    8.6998 N.pl3   1  LIG1       -0.3426
      8 O          -7.7720    4.9341   10.9803 O.2     1  LIG1       -0.2652
      9 N          -1.5885    3.6047    8.2568 N.pl3   1  LIG1        0.0579
     10 C          -4.1312    6.6941   11.8562 C.ar    1  LIG1        0.2749
     11 C          -2.8430    5.5938    8.8479 C.ar    1  LIG1       -0.0245
     12 C          -6.6847    5.4293   11.2888 C.ar    1  LIG1        0.2795
     13 O          -2.0310    2.9543    9.1989 O.2     1  LIG1       -0.1261
     14 C          -4.2822    7.5619    9.4903 C.3     1  LIG1        0.1150
     15 C          -2.9892    6.9702    8.9622 C.ar    1  LIG1       -0.0161
     16 O          -6.6618    7.8783    6.5932 O.2     1  LIG1       -0.2451
     17 C          -5.9991    5.1893   12.5519 C.ar    1  LIG1        0.0536
     18 C          -1.6746    5.0676    8.3480 C.ar    1  LIG1        0.1447
     19 C          -5.4800    7.4411    8.5745 C.2     1  LIG1        0.1046
     20 C          -5.6580    8.0286    7.2674 C.2     1  LIG1        0.3409
     21 C          -0.6186    5.8842    7.9676 C.ar    1  LIG1        0.0711
     22 C          -6.4507    6.6975    9.1453 C.2     1  LIG1        0.1322
     23 O          -1.1135    3.0961    7.2630 O.2     1  LIG1       -0.1261
     24 C          -0.7560    7.2505    8.1043 C.ar    1  LIG1       -0.0408
     25 C          -4.1362    5.5241   14.0428 C.ar    1  LIG1       -0.0486
     26 C          -6.5748    4.3231   13.4923 C.ar    1  LIG1       -0.0486
     27 C          -1.9359    7.7852    8.5972 C.ar    1  LIG1       -0.0547
     28 C          -4.7215    4.6756   14.9579 C.ar    1  LIG1       -0.0610
     29 C          -4.6851    9.2975    5.5359 C.3     1  LIG1        0.0900
     30 C          -5.9322    4.0823   14.6823 C.ar    1  LIG1       -0.0610
     31 C          -3.4251    9.9438    5.2231 C.3     1  LIG1       -0.0306
     32 H          -0.0551    7.8137    7.8654 H       1  LIG1        0.0633
     33 H          -2.0191    8.7075    8.6836 H       1  LIG1        0.0622
     34 H          -3.5338    5.0281    9.1090 H       1  LIG1        0.0644
     35 H          -3.3133    5.9152   14.2311 H       1  LIG1        0.0625
     36 H          -4.2962    4.5036   15.7669 H       1  LIG1        0.0618
     37 H          -6.3186    3.5132   15.3075 H       1  LIG1        0.0618
     38 H          -7.3890    3.9119   13.3106 H       1  LIG1        0.0625
     39 H          -8.1946    5.9027    9.1937 H       1  LIG1        0.1437
     40 H          -7.9229    6.6244    7.9194 H       1  LIG1        0.1437
     41 H          -4.1419    8.5027    9.7268 H       1  LIG1        0.0649
     42 H          -4.8586    8.5875    4.8981 H       1  LIG1        0.0695
     43 H          -5.4085    9.9404    5.4812 H       1  LIG1        0.0695
     44 H          -3.4646   10.3064    4.3376 H       1  LIG1        0.0262
     45 H          -3.2649   10.6505    5.8528 H       1  LIG1        0.0262
     46 H          -2.7142    9.3017    5.2751 H       1  LIG1        0.0262
@<TRIPOS>BOND
     1    44    31    1
     2    42    29    1
     3    31    46    1
     4    31    29    1
     5    31    45    1
     6    43    29    1
     7    29     4    1
     8    16    20    2
     9     4    20    1
    10    23     9    2
    11    20    19    1
    12     1    21    1
    13    32    24    1
    14    40     7    1
    15    21    24   ar
    16    21    18   ar
    17    24    27   ar
    18     9    18    1
    19     9    13    2
    20    18    11   ar
    21    19    22    2
    22    19    14    1
    23    27    33    1
    24    27    15   ar
    25     7    22    1
    26     7    39    1
    27    11    15   ar
    28    11    34    1
    29    15    14    1
    30    22     5    1
    31    14    41    1
    32    14     3    1
    33     5     3   ar
    34     5    12   ar
    35     3    10   ar
    36     8    12    2
    37    12    17   ar
    38    10     2    2
    39    10     6   ar
    40    17     6   ar
    41    17    26   ar
    42     6    25   ar
    43    38    26    1
    44    26    30   ar
    45    25    35    1
    46    25    28   ar
    47    30    28   ar
    48    30    37    1
    49    28    36    1
