@<TRIPOS>MOLECULE
7236556.cif
 41 42 0 0 0
SMALL
GASTEIGER

@<TRIPOS>ATOM
      1 C           6.3956    2.9989    0.6803 C.2     1  LIG1        0.2135
      2 C           7.0305    2.5286    1.7981 C.2     1  LIG1        0.1043
      3 C           6.2471    1.8010    2.8584 C.3     1  LIG1        0.0502
      4 C           5.0458    1.1288    2.2405 C.ar    1  LIG1        0.0045
      5 C           4.4961    1.6681    1.0955 C.ar    1  LIG1        0.1339
      6 C           3.3612    1.1518    0.5110 C.ar    1  LIG1       -0.0190
      7 H           2.9892    1.5582   -0.2385 H       1  LIG1        0.0654
      8 C           2.7836    0.0213    1.0539 C.ar    1  LIG1       -0.0583
      9 H           2.0161   -0.3382    0.6707 H       1  LIG1        0.0619
     10 C           3.3399   -0.5700    2.1537 C.ar    1  LIG1       -0.0613
     11 H           2.9624   -1.3469    2.4997 H       1  LIG1        0.0618
     12 C           4.4562   -0.0247    2.7539 C.ar    1  LIG1       -0.0544
     13 H           4.8176   -0.4302    3.5089 H       1  LIG1        0.0622
     14 C           5.8518    2.7663    4.0150 C.3     1  LIG1        0.1539
     15 C           4.8367    3.7273    3.5730 C.1     1  LIG1        0.0782
     16 C           5.4512    2.0506    5.2966 C.2     1  LIG1        0.3251
     17 C           4.2783    2.2065    7.3521 C.3     1  LIG1        0.0897
     18 H           3.3134    2.2875    7.4117 H       1  LIG1        0.0694
     19 H           4.4945    1.2609    7.3500 H       1  LIG1        0.0694
     20 C           4.8100    2.7569    8.4018 C.3     1  LIG1       -0.0306
     21 H           5.7558    2.5942    8.4060 H       1  LIG1        0.0262
     22 H           4.4186    2.3812    9.1938 H       1  LIG1        0.0262
     23 H           4.6487    3.7034    8.3848 H       1  LIG1        0.0262
     24 C           8.4328    2.7935    1.9740 C.2     1  LIG1        0.3407
     25 C          10.2990    2.5346    3.4323 C.3     1  LIG1        0.0900
     26 H          10.5043    3.4828    3.4280 H       1  LIG1        0.0695
     27 H          10.8415    2.0992    2.7573 H       1  LIG1        0.0695
     28 C          10.5786    1.9689    4.7396 C.3     1  LIG1       -0.0306
     29 H          10.1382    2.4894    5.4145 H       1  LIG1        0.0262
     30 H          11.5259    1.9782    4.8950 H       1  LIG1        0.0262
     31 H          10.2584    1.0641    4.7715 H       1  LIG1        0.0262
     32 H           7.6725    3.9701   -0.3087 H       1  LIG1        0.1730
     33 H           6.8014    1.1416    3.2832 H       1  LIG1        0.0420
     34 H           6.6468    3.2544    4.2456 H       1  LIG1        0.0579
     35 N           4.0494    4.4267    3.1508 N.1     1  LIG1       -0.1957
     36 N           6.8939    3.7290   -0.3175 N.pl3   1  LIG1       -0.2337
     37 O           5.7527    0.9354    5.5408 O.2     1  LIG1       -0.2494
     38 O           4.7283    2.7978    6.0808 O.3     1  LIG1       -0.4640
     39 O           8.8936    2.3275    3.1529 O.3     1  LIG1       -0.4615
     40 O           9.1620    3.3788    1.1934 O.2     1  LIG1       -0.2451
     41 O           5.0787    2.7484    0.4501 O.3     1  LIG1       -0.4398
@<TRIPOS>BOND
     1    36    32    1
     2    36     1    1
     3     7     6    1
     4    41     1    1
     5    41     5    1
     6     6     8   ar
     7     6     5   ar
     8     9     8    1
     9     1     2    2
    10     8    10   ar
    11     5     4   ar
    12    40    24    2
    13     2    24    1
    14     2     3    1
    15    24    39    1
    16    10    11    1
    17    10    12   ar
    18     4    12   ar
    19     4     3    1
    20    12    13    1
    21    27    25    1
    22     3    33    1
    23     3    14    1
    24    35    15    3
    25    39    25    1
    26    26    25    1
    27    25    28    1
    28    15    14    1
    29    14    34    1
    30    14    16    1
    31    28    31    1
    32    28    30    1
    33    28    29    1
    34    16    37    2
    35    16    38    1
    36    38    17    1
    37    19    17    1
    38    17    18    1
    39    17    20    1
    40    23    20    1
    41    20    21    1
    42    20    22    1
