@<TRIPOS>MOLECULE
phenothiazine
 13 13 0 0 0
SMALL
GASTEIGER

@<TRIPOS>ATOM
      1 S           1.0553    5.2302    1.2277 S.3     1  LIG1       -0.0501
      2 N           2.6204    5.2302   -1.3464 N.pl3   1  LIG1       -0.2654
      3 H           3.0472    5.2302   -2.0023 H       1  LIG1        0.1700
      4 C           1.9291    6.5834    0.5273 C.ar    1  LIG1        0.0413
      5 C           2.5763    6.4591   -0.7087 C.ar    1  LIG1        0.0585
      6 C           3.1377    7.5891   -1.2748 C.ar    1  LIG1       -0.0383
      7 H           3.5879    7.5145   -2.0964 H       1  LIG1        0.0637
      8 C           3.0535    8.8159   -0.6670 C.ar    1  LIG1       -0.0599
      9 H           3.4205    9.5750   -1.0825 H       1  LIG1        0.0618
     10 C           2.4267    8.9305    0.5590 C.ar    1  LIG1       -0.0606
     11 H           2.3749    9.7649    0.9890 H       1  LIG1        0.0618
     12 C           1.8811    7.8155    1.1432 C.ar    1  LIG1       -0.0457
     13 H           1.4643    7.8936    1.9821 H       1  LIG1        0.0629
@<TRIPOS>BOND
     1     7     6    1
     2     3     2    1
     3     2     5    1
     4     6     5   ar
     5     6     8   ar
     6     9     8    1
     7     5     4   ar
     8     8    10   ar
     9     4    12   ar
    10     4     1    1
    11    10    11    1
    12    10    12   ar
    13    12    13    1
