@<TRIPOS>MOLECULE
C41 H25 N O S, C H2 Cl2
 74 81 0 0 0
SMALL
GASTEIGER

@<TRIPOS>ATOM
      1 S           5.8335   -4.1539    3.1012 S.3     1  LIG1       -0.0857
      2 CL          2.8974    3.5274   12.3865 Cl      1  LIG1       -0.1083
      3 CL          3.5126    6.3465   12.7382 Cl      1  LIG1       -0.1083
      4 O           8.0801    3.6132    3.7715 O.2     1  LIG1       -0.2867
      5 N           5.7657   -1.8008    1.2952 N.pl3   1  LIG1       -0.2671
      6 C           6.8194   -2.7219    0.9900 C.ar    1  LIG1        0.0525
      7 C           5.2833    1.4472    3.0024 C.ar    1  LIG1       -0.0492
      8 H           4.5816    1.9801    3.3004 H       1  LIG1        0.0625
      9 C           1.9667    5.6115    7.5789 C.ar    1  LIG1       -0.0090
     10 C           1.1922    6.2318    8.6013 C.ar    1  LIG1       -0.0019
     11 C           5.0017    0.2523    2.3718 C.ar    1  LIG1       -0.0393
     12 H           4.1173   -0.0031    2.2429 H       1  LIG1        0.0636
     13 C           5.9691    3.8271    4.7755 C.ar    1  LIG1        0.0223
     14 C           5.9787    5.2281    4.8500 C.ar    1  LIG1       -0.0503
     15 H           6.5709    5.7130    4.3222 H       1  LIG1        0.0625
     16 C           6.5991    1.8763    3.2045 C.ar    1  LIG1        0.0224
     17 C           4.2575    3.7924    6.4842 C.ar    1  LIG1       -0.0533
     18 H           3.6992    3.3059    7.0461 H       1  LIG1        0.0624
     19 C           6.0419   -0.5840    1.9219 C.ar    1  LIG1        0.0389
     20 C           4.2379    5.1904    6.5339 C.ar    1  LIG1       -0.0173
     21 C           3.3434    5.9020    7.4851 C.ar    1  LIG1       -0.0101
     22 C           6.9565    3.1361    3.8916 C.2     1  LIG1        0.1931
     23 C           7.6268    1.0604    2.7179 C.ar    1  LIG1       -0.0492
     24 H           8.5083    1.3408    2.8097 H       1  LIG1        0.0625
     25 C           5.1159    5.8948    5.7002 C.ar    1  LIG1       -0.0533
     26 H           5.1183    6.8248    5.7182 H       1  LIG1        0.0624
     27 C           7.3676   -0.1471    2.1075 C.ar    1  LIG1       -0.0393
     28 H           8.0736   -0.6778    1.8154 H       1  LIG1        0.0636
     29 C           1.7901    7.1792    9.4764 C.ar    1  LIG1       -0.0167
     30 C          -0.8257    5.0327    7.8335 C.ar    1  LIG1       -0.0167
     31 C          -0.9451    6.4752    9.8191 C.ar    1  LIG1       -0.0167
     32 C          -0.1930    5.9111    8.7477 C.ar    1  LIG1       -0.0025
     33 C           5.0991    3.1198    5.6076 C.ar    1  LIG1       -0.0503
     34 H           5.0817    2.1910    5.5741 H       1  LIG1        0.0625
     35 C           6.9496   -3.8703    1.7632 C.ar    1  LIG1        0.0344
     36 C           1.2791    4.7550    6.6422 C.ar    1  LIG1       -0.0528
     37 H           1.7589    4.3688    5.9465 H       1  LIG1        0.0624
     38 C           3.8963    6.8705    8.3298 C.ar    1  LIG1       -0.0529
     39 H           4.7954    7.0915    8.2413 H       1  LIG1        0.0624
     40 C          -0.0423    4.4999    6.7493 C.ar    1  LIG1       -0.0534
     41 H          -0.4558    3.9682    6.1085 H       1  LIG1        0.0624
     42 C           4.4831   -2.4160    1.4784 C.ar    1  LIG1        0.0525
     43 C           7.6702   -2.5068   -0.0899 C.ar    1  LIG1       -0.0389
     44 H           7.5560   -1.7598   -0.6332 H       1  LIG1        0.0637
     45 C           4.3717   -3.4931    2.3495 C.ar    1  LIG1        0.0344
     46 C           7.9560   -4.7943    1.4666 C.ar    1  LIG1       -0.0462
     47 H           8.0354   -5.5728    1.9692 H       1  LIG1        0.0629
     48 C          -2.1772    4.7157    8.0069 C.ar    1  LIG1       -0.0540
     49 H          -2.6010    4.1526    7.4008 H       1  LIG1        0.0624
     50 C           8.8323   -4.5497    0.4259 C.ar    1  LIG1       -0.0606
     51 H           9.5192   -5.1497    0.2478 H       1  LIG1        0.0618
     52 C           8.6897   -3.4128   -0.3530 C.ar    1  LIG1       -0.0599
     53 H           9.2789   -3.2559   -1.0542 H       1  LIG1        0.0618
     54 C           0.9875    7.7535   10.5274 C.ar    1  LIG1       -0.0534
     55 H           1.3675    8.3782   11.1012 H       1  LIG1        0.0624
     56 C           3.3687   -1.9757    0.7713 C.ar    1  LIG1       -0.0389
     57 H           3.4534   -1.2923    0.1474 H       1  LIG1        0.0637
     58 C           3.1358    7.5073    9.2947 C.ar    1  LIG1       -0.0534
     59 H           3.5260    8.1612    9.8283 H       1  LIG1        0.0624
     60 C          -0.3018    7.4025   10.6936 C.ar    1  LIG1       -0.0534
     61 H          -0.7862    7.7740   11.3959 H       1  LIG1        0.0624
     62 C          -2.2905    6.1066    9.9721 C.ar    1  LIG1       -0.0540
     63 H          -2.7837    6.4515   10.6817 H       1  LIG1        0.0624
     64 C           2.0135   -3.5973    1.9206 C.ar    1  LIG1       -0.0606
     65 H           1.1780   -3.9669    2.0939 H       1  LIG1        0.0618
     66 C          -2.8919    5.2377    9.0787 C.ar    1  LIG1       -0.0606
     67 H          -3.7829    4.9999    9.1967 H       1  LIG1        0.0618
     68 C           3.1332   -4.0835    2.5831 C.ar    1  LIG1       -0.0462
     69 H           3.0557   -4.7959    3.1757 H       1  LIG1        0.0629
     70 C           2.1315   -2.5607    1.0000 C.ar    1  LIG1       -0.0599
     71 H           1.3825   -2.2599    0.5376 H       1  LIG1        0.0618
     72 C           3.4950    4.9877   11.6259 C.3     1  LIG1        0.0970
     73 H           2.9334    5.2050   10.8647 H       1  LIG1        0.0597
     74 H           4.3941    4.8322   11.2971 H       1  LIG1        0.0597
@<TRIPOS>BOND
     1    53    52    1
     2    44    43    1
     3    52    43   ar
     4    52    50   ar
     5    43     6   ar
     6    57    56    1
     7    51    50    1
     8    50    46   ar
     9    71    70    1
    10    56    70   ar
    11    56    42   ar
    12     6     5    1
    13     6    35   ar
    14    70    64   ar
    15     5    42    1
    16     5    19    1
    17    46    35   ar
    18    46    47    1
    19    42    45   ar
    20    35     1    1
    21    28    27    1
    22    64    65    1
    23    64    68   ar
    24    19    27   ar
    25    19    11   ar
    26    27    23   ar
    27    12    11    1
    28    45    68   ar
    29    45     1    1
    30    11     7   ar
    31    68    69    1
    32    23    24    1
    33    23    16   ar
    34     7    16   ar
    35     7     8    1
    36    16    22    1
    37     4    22    2
    38    22    13    1
    39    15    14    1
    40    13    14   ar
    41    13    33   ar
    42    14    25   ar
    43    34    33    1
    44    33    17   ar
    45    25    26    1
    46    25    20   ar
    47    37    36    1
    48    41    40    1
    49    17    20   ar
    50    17    18    1
    51    20    21    1
    52    36    40   ar
    53    36     9   ar
    54    40    30   ar
    55    49    48    1
    56    21     9   ar
    57    21    38   ar
    58     9    10   ar
    59    30    48   ar
    60    30    32   ar
    61    48    66   ar
    62    39    38    1
    63    38    58   ar
    64    10    32   ar
    65    10    29   ar
    66    32    31   ar
    67    66    67    1
    68    66    62   ar
    69    58    29   ar
    70    58    59    1
    71    29    54   ar
    72    31    62   ar
    73    31    60   ar
    74    62    63    1
    75    54    60   ar
    76    54    55    1
    77    60    61    1
    78    73    72    1
    79    74    72    1
    80    72     2    1
    81    72     3    1
