@<TRIPOS>MOLECULE
7237963.cif
 73 78 0 0 0
SMALL
GASTEIGER

@<TRIPOS>ATOM
      1 N          -0.3291    9.5265   10.8545 N.ar    1  LIG1       -0.2365
      2 N           6.0619    7.5852   13.5613 N.1     1  LIG1       -0.1908
      3 N           0.1018    7.5208   11.9220 N.pl3   1  LIG1       -0.3147
      4 N           2.1766    3.0044   18.4138 N.pl3   1  LIG1       -0.2692
      5 C           0.0855   10.6305   10.1844 C.ar    1  LIG1        0.0409
      6 C           1.3951   10.8776    9.9369 C.ar    1  LIG1       -0.0328
      7 H           1.6373   11.5587    9.3523 H       1  LIG1        0.0641
      8 C           2.3909   10.1013   10.5664 C.ar    1  LIG1       -0.0114
      9 C           3.7563   10.4465   10.5034 C.ar    1  LIG1       -0.0497
     10 H           4.0154   11.1329    9.9322 H       1  LIG1        0.0627
     11 C           4.7134    9.8183   11.2440 C.ar    1  LIG1       -0.0313
     12 C           4.2870    8.7837   12.1165 C.ar    1  LIG1        0.0707
     13 C           2.9545    8.3825   12.2096 C.ar    1  LIG1        0.0538
     14 C           1.9798    9.0039   11.3704 C.ar    1  LIG1        0.0387
     15 C           0.5698    8.6919   11.3529 C.ar    1  LIG1        0.1305
     16 C          -1.0170   11.5546    9.7425 C.3     1  LIG1       -0.0223
     17 H          -1.6772   11.0548    9.2552 H       1  LIG1        0.0292
     18 H          -0.6534   12.2399    9.1791 H       1  LIG1        0.0292
     19 H          -1.4257   11.9560   10.5121 H       1  LIG1        0.0292
     20 C           6.1579   10.2388   11.2051 C.3     1  LIG1       -0.0384
     21 H           6.4345   10.5155   12.0813 H       1  LIG1        0.0278
     22 H           6.2621   10.9687   10.5908 H       1  LIG1        0.0278
     23 H           6.6988    9.4998   10.9188 H       1  LIG1        0.0278
     24 C           5.2640    8.1237   12.9360 C.1     1  LIG1        0.1007
     25 C           0.6119    6.2434   11.4227 C.3     1  LIG1        0.0135
     26 H           0.6299    5.5999   12.1495 H       1  LIG1        0.0464
     27 H           1.5217    6.3632   11.1078 H       1  LIG1        0.0464
     28 C          -0.2450    5.6992   10.2901 C.3     1  LIG1       -0.0371
     29 H          -0.1733    6.2872    9.5228 H       1  LIG1        0.0280
     30 H           0.0849    4.8244   10.0293 H       1  LIG1        0.0280
     31 C          -1.7011    5.5847   10.7002 C.3     1  LIG1       -0.0502
     32 H          -2.2318    5.2998    9.9400 H       1  LIG1        0.0266
     33 H          -1.7913    4.9177   11.3990 H       1  LIG1        0.0266
     34 C          -2.2066    6.9167   11.2014 C.3     1  LIG1       -0.0371
     35 H          -3.1085    6.8133   11.5407 H       1  LIG1        0.0280
     36 H          -2.2323    7.5503   10.4675 H       1  LIG1        0.0280
     37 C          -1.3093    7.4510   12.3007 C.3     1  LIG1        0.0135
     38 H          -1.6118    8.3390   12.5484 H       1  LIG1        0.0464
     39 H          -1.3963    6.8813   13.0811 H       1  LIG1        0.0464
     40 C           2.6373    7.4254   13.2183 C.1     1  LIG1       -0.0590
     41 C           2.5331    6.6543   14.1291 C.1     1  LIG1       -0.0610
     42 C           2.4188    5.7443   15.2202 C.ar    1  LIG1        0.0254
     43 C           3.3705    5.7459   16.2410 C.ar    1  LIG1       -0.0446
     44 H           4.0708    6.3572   16.2116 H       1  LIG1        0.0630
     45 C           3.2894    4.8598   17.2878 C.ar    1  LIG1       -0.0389
     46 H           3.9282    4.8893   17.9645 H       1  LIG1        0.0637
     47 C           2.2676    3.9195   17.3526 C.ar    1  LIG1        0.0388
     48 C           1.3095    3.9212   16.3384 C.ar    1  LIG1       -0.0389
     49 H           0.6133    3.3058   16.3638 H       1  LIG1        0.0637
     50 C           1.3832    4.8220   15.3037 C.ar    1  LIG1       -0.0446
     51 H           0.7261    4.8142   14.6450 H       1  LIG1        0.0630
     52 C           3.3265    2.5457   19.1089 C.ar    1  LIG1        0.0388
     53 C           4.5076    2.2882   18.4431 C.ar    1  LIG1       -0.0400
     54 H           4.5492    2.3965   17.5210 H       1  LIG1        0.0636
     55 C           5.6265    1.8719   19.1351 C.ar    1  LIG1       -0.0600
     56 H           6.4222    1.7183   18.6783 H       1  LIG1        0.0618
     57 C           5.5725    1.6827   20.4936 C.ar    1  LIG1       -0.0616
     58 H           6.3305    1.4101   20.9586 H       1  LIG1        0.0618
     59 C           4.3921    1.8983   21.1596 C.ar    1  LIG1       -0.0600
     60 H           4.3481    1.7528   22.0765 H       1  LIG1        0.0618
     61 C           3.2646    2.3308   20.4784 C.ar    1  LIG1       -0.0400
     62 H           2.4688    2.4766   20.9376 H       1  LIG1        0.0636
     63 C           0.9099    2.4319   18.7439 C.ar    1  LIG1        0.0388
     64 C           0.7045    1.0765   18.6379 C.ar    1  LIG1       -0.0400
     65 H           1.4019    0.5241   18.3686 H       1  LIG1        0.0636
     66 C          -0.5237    0.5322   18.9283 C.ar    1  LIG1       -0.0600
     67 H          -0.6525   -0.3852   18.8541 H       1  LIG1        0.0618
     68 C          -1.5497    1.3280   19.3248 C.ar    1  LIG1       -0.0616
     69 H          -2.3790    0.9580   19.5232 H       1  LIG1        0.0618
     70 C          -1.3571    2.6834   19.4322 C.ar    1  LIG1       -0.0600
     71 H          -2.0620    3.2298   19.6938 H       1  LIG1        0.0618
     72 C          -0.1234    3.2419   19.1532 C.ar    1  LIG1       -0.0400
     73 H           0.0065    4.1594   19.2424 H       1  LIG1        0.0636
@<TRIPOS>BOND
     1    18    16    1
     2    17    16    1
     3     7     6    1
     4    29    28    1
     5    16     5    1
     6    16    19    1
     7    10     9    1
     8     6     5   ar
     9     6     8   ar
    10    32    31    1
    11    30    28    1
    12     5     1   ar
    13    28    31    1
    14    28    25    1
    15    36    34    1
    16     9     8   ar
    17     9    11   ar
    18     8    14   ar
    19    22    20    1
    20    31    34    1
    21    31    33    1
    22     1    15   ar
    23    23    20    1
    24    27    25    1
    25    34    35    1
    26    34    37    1
    27    20    11    1
    28    20    21    1
    29    11    12   ar
    30    15    14   ar
    31    15     3    1
    32    14    13   ar
    33    25     3    1
    34    25    26    1
    35     3    37    1
    36    12    13   ar
    37    12    24    1
    38    13    40    1
    39    37    38    1
    40    37    39    1
    41    24     2    3
    42    40    41    3
    43    41    42    1
    44    51    50    1
    45    42    50   ar
    46    42    43   ar
    47    50    48   ar
    48    44    43    1
    49    43    45   ar
    50    48    49    1
    51    48    47   ar
    52    45    47   ar
    53    45    46    1
    54    47     4    1
    55    54    53    1
    56    65    64    1
    57     4    63    1
    58     4    52    1
    59    53    52   ar
    60    53    55   ar
    61    64    63   ar
    62    64    66   ar
    63    56    55    1
    64    63    72   ar
    65    67    66    1
    66    66    68   ar
    67    52    61   ar
    68    55    57   ar
    69    72    73    1
    70    72    70   ar
    71    68    70   ar
    72    68    69    1
    73    70    71    1
    74    61    62    1
    75    61    59   ar
    76    57    58    1
    77    57    59   ar
    78    59    60    1
