@<TRIPOS>MOLECULE
(3aS,9S,9aS)-10-methylene-12-[(R)-1-phenylethyl]-2,3,9,9a-tetrahydro-1H-3a,9- -(epiminoethano)cyclopenta[b]chromen-11-one
 211 226 0 0 0
SMALL
GASTEIGER

@<TRIPOS>ATOM
      1 N           6.4599    2.5673    0.9666 N.am    1  LIG1       -0.2527
      2 O           5.5636    4.5240    1.9648 O.3     1  LIG1       -0.4676
      3 O           7.6892    1.7298   -0.7405 O.2     1  LIG1       -0.2702
      4 C           5.2476    3.2088    1.4333 C.3     1  LIG1        0.1847
      5 C           4.4978    2.5092    2.5706 C.3     1  LIG1        0.0050
      6 H           4.8296    2.8136    3.4520 H       1  LIG1        0.0321
      7 H           4.6018    1.5264    2.5107 H       1  LIG1        0.0321
      8 C           3.0160    2.9228    2.3625 C.3     1  LIG1       -0.0474
      9 H           2.4437    2.1212    2.2658 H       1  LIG1        0.0267
     10 H           2.6936    3.4500    3.1356 H       1  LIG1        0.0267
     11 C           2.9705    3.7759    1.0703 C.3     1  LIG1       -0.0439
     12 H           2.1463    3.5993    0.5517 H       1  LIG1        0.0270
     13 H           3.0258    4.7427    1.2752 H       1  LIG1        0.0270
     14 C           4.2078    3.2970    0.3242 C.3     1  LIG1        0.0275
     15 H           4.0302    2.3707   -0.0095 H       1  LIG1        0.0366
     16 C           4.8231    4.0963   -0.8116 C.3     1  LIG1        0.0251
     17 H           4.1429    4.2615   -1.5264 H       1  LIG1        0.0404
     18 C           5.3645    5.4149   -0.2888 C.ar    1  LIG1        0.0024
     19 C           5.5554    6.5107   -1.1321 C.ar    1  LIG1       -0.0545
     20 H           5.2880    6.4494   -2.0416 H       1  LIG1        0.0622
     21 C           6.1248    7.6833   -0.6743 C.ar    1  LIG1       -0.0613
     22 H           6.2594    8.4142   -1.2673 H       1  LIG1        0.0618
     23 C           6.4989    7.7853    0.6575 C.ar    1  LIG1       -0.0583
     24 H           6.8926    8.5878    0.9779 H       1  LIG1        0.0619
     25 C           6.2987    6.7168    1.5239 C.ar    1  LIG1       -0.0195
     26 H           6.5435    6.7918    2.4391 H       1  LIG1        0.0654
     27 C           5.7408    5.5425    1.0483 C.ar    1  LIG1        0.1272
     28 C           5.9532    3.2477   -1.3506 C.2     1  LIG1        0.0155
     29 C           6.2613    3.1759   -2.6350 C.2     1  LIG1       -0.0900
     30 H           6.9824    2.6274   -2.9209 H       1  LIG1        0.0539
     31 H           5.7616    3.6735   -3.2723 H       1  LIG1        0.0539
     32 C           6.7677    2.4451   -0.3663 C.2     1  LIG1        0.2460
     33 C           7.4054    2.1084    2.0047 C.3     1  LIG1        0.0522
     34 H           7.1263    2.5654    2.8494 H       1  LIG1        0.0549
     35 C           7.3128    0.6159    2.2916 C.ar    1  LIG1       -0.0271
     36 C           6.5212   -0.2547    1.5532 C.ar    1  LIG1       -0.0568
     37 H           6.0323    0.0743    0.8077 H       1  LIG1        0.0621
     38 C           6.4336   -1.6001    1.8888 C.ar    1  LIG1       -0.0614
     39 H           5.8824   -2.1839    1.3802 H       1  LIG1        0.0618
     40 C           7.1564   -2.0886    2.9710 C.ar    1  LIG1       -0.0617
     41 H           7.0925   -3.0048    3.2135 H       1  LIG1        0.0618
     42 C           7.9681   -1.2322    3.6933 C.ar    1  LIG1       -0.0614
     43 H           8.4824   -1.5695    4.4171 H       1  LIG1        0.0618
     44 C           8.0389    0.1091    3.3695 C.ar    1  LIG1       -0.0568
     45 H           8.5855    0.6899    3.8845 H       1  LIG1        0.0621
     46 C           8.8483    2.5632    1.7390 C.3     1  LIG1       -0.0421
     47 H           9.2126    2.0644    0.9779 H       1  LIG1        0.0251
     48 H           9.3965    2.3927    2.5329 H       1  LIG1        0.0251
     49 H           8.8564    3.5214    1.5360 H       1  LIG1        0.0251
     50 N           5.7658    3.0851    9.6566 N.am    2  LIG2       -0.2527
     51 O           7.5971    1.8228    8.8659 O.3     2  LIG2       -0.4676
     52 O           4.2112    2.9755   11.2991 O.2     2  LIG2       -0.2702
     53 C           6.3893    2.5258    8.4724 C.3     2  LIG2        0.1847
     54 C           6.8659    3.5042    7.3973 C.3     2  LIG2        0.0050
     55 H           7.7445    3.8944    7.6338 H       2  LIG2        0.0321
     56 H           6.2125    4.2363    7.2665 H       2  LIG2        0.0321
     57 C           6.9731    2.6146    6.1272 C.3     2  LIG2       -0.0474
     58 H           6.5151    3.0479    5.3632 H       2  LIG2        0.0267
     59 H           7.9223    2.4717    5.8863 H       2  LIG2        0.0267
     60 C           6.2936    1.2614    6.4678 C.3     2  LIG2       -0.0439
     61 H           5.7160    0.9567    5.7241 H       2  LIG2        0.0270
     62 H           6.9684    0.5631    6.6607 H       2  LIG2        0.0270
     63 C           5.4664    1.5839    7.7096 C.3     2  LIG2        0.0275
     64 H           4.6581    2.0986    7.4239 H       2  LIG2        0.0366
     65 C           5.0214    0.4891    8.6788 C.3     2  LIG2        0.0251
     66 H           4.4947   -0.2147    8.2030 H       2  LIG2        0.0404
     67 C           6.2222   -0.1174    9.3781 C.ar    2  LIG2        0.0024
     68 C           7.4152    0.6009    9.4846 C.ar    2  LIG2        0.1272
     69 C           8.4975    0.1139   10.1993 C.ar    2  LIG2       -0.0195
     70 H           9.2959    0.6237   10.2653 H       2  LIG2        0.0654
     71 C           8.4071   -1.1216   10.8177 C.ar    2  LIG2       -0.0583
     72 H           9.1442   -1.4621   11.3115 H       2  LIG2        0.0619
     73 C           7.2354   -1.8655   10.7164 C.ar    2  LIG2       -0.0613
     74 H           7.1766   -2.7168   11.1335 H       2  LIG2        0.0618
     75 C           6.1567   -1.3656   10.0095 C.ar    2  LIG2       -0.0545
     76 H           5.3582   -1.8773    9.9521 H       2  LIG2        0.0622
     77 C           4.1646    1.1996    9.7094 C.2     2  LIG2        0.0155
     78 C           3.0099    0.7348   10.1538 C.2     2  LIG2       -0.0900
     79 H           2.5333    1.2094   10.8234 H       2  LIG2        0.0539
     80 H           2.6570   -0.0737    9.8026 H       2  LIG2        0.0539
     81 C           4.6998    2.4902   10.2880 C.2     2  LIG2        0.2460
     82 C           6.5078    4.1614   10.3588 C.3     2  LIG2        0.0522
     83 H           7.2766    4.3941    9.7628 H       2  LIG2        0.0549
     84 C           5.6837    5.4316   10.4838 C.ar    2  LIG2       -0.0271
     85 C           4.6031    5.6887    9.6347 C.ar    2  LIG2       -0.0568
     86 H           4.3298    5.0230    9.0155 H       2  LIG2        0.0621
     87 C           3.9244    6.8912    9.6786 C.ar    2  LIG2       -0.0614
     88 H           3.1860    7.0366    9.0982 H       2  LIG2        0.0618
     89 C           4.3105    7.8879   10.5609 C.ar    2  LIG2       -0.0617
     90 H           3.8508    8.7188   10.5849 H       2  LIG2        0.0618
     91 C           5.3825    7.6459   11.4095 C.ar    2  LIG2       -0.0614
     92 H           5.6567    8.3202   12.0191 H       2  LIG2        0.0618
     93 C           6.0594    6.4352   11.3820 C.ar    2  LIG2       -0.0568
     94 H           6.7836    6.2868   11.9778 H       2  LIG2        0.0621
     95 C           7.1297    3.6444   11.6593 C.3     2  LIG2       -0.0421
     96 H           6.4185    3.4319   12.2990 H       2  LIG2        0.0251
     97 H           7.7157    4.3335   12.0382 H       2  LIG2        0.0251
     98 H           7.6533    2.8377   11.4721 H       2  LIG2        0.0251
     99 N           1.1567    9.4006    7.6975 N.am    3  LIG3       -0.2527
    100 O           0.5284    7.2570    6.8819 O.3     3  LIG3       -0.4676
    101 O           2.3412   10.3779    9.3537 O.2     3  LIG3       -0.2702
    102 C           0.0452    8.5707    7.2658 C.3     3  LIG3        0.1847
    103 C          -0.7407    9.0579    6.0542 C.3     3  LIG3        0.0050
    104 H          -0.2806    8.8145    5.2122 H       3  LIG3        0.0321
    105 H          -0.8634   10.0398    6.0819 H       3  LIG3        0.0321
    106 C          -2.0974    8.3276    6.1746 C.3     3  LIG3       -0.0474
    107 H          -2.1532    7.5914    5.5143 H       3  LIG3        0.0267
    108 H          -2.8437    8.9564    6.0104 H       3  LIG3        0.0267
    109 C          -2.1715    7.7654    7.6203 C.3     3  LIG3       -0.0439
    110 H          -3.0427    7.9786    8.0408 H       3  LIG3        0.0270
    111 H          -2.0421    6.7837    7.6274 H       3  LIG3        0.0270
    112 C          -1.0290    8.4721    8.3410 C.3     3  LIG3        0.0275
    113 H          -1.3270    9.3965    8.5767 H       3  LIG3        0.0366
    114 C          -0.3864    7.8454    9.5689 C.3     3  LIG3        0.0251
    115 H          -1.0714    7.7035   10.2828 H       3  LIG3        0.0404
    116 C           0.2525    6.5252    9.1860 C.ar    3  LIG3        0.0024
    117 C           0.6998    6.3168    7.8858 C.ar    3  LIG3        0.1272
    118 C           1.3207    5.1291    7.5207 C.ar    3  LIG3       -0.0195
    119 H           1.6210    4.9985    6.6289 H       3  LIG3        0.0654
    120 C           1.4980    4.1328    8.4768 C.ar    3  LIG3       -0.0583
    121 H           1.9160    3.3143    8.2348 H       3  LIG3        0.0619
    122 C           1.0683    4.3271    9.7813 C.ar    3  LIG3       -0.0613
    123 H           1.1987    3.6483   10.4338 H       3  LIG3        0.0618
    124 C           0.4479    5.5153   10.1279 C.ar    3  LIG3       -0.0545
    125 H           0.1509    5.6443   11.0206 H       3  LIG3        0.0622
    126 C           0.6729    8.8183   10.0452 C.2     3  LIG3        0.0155
    127 C           0.9573    9.0003   11.3271 C.2     3  LIG3       -0.0900
    128 H           1.6405    9.6099   11.5803 H       3  LIG3        0.0539
    129 H           0.4777    8.5214   11.9921 H       3  LIG3        0.0539
    130 C           1.4601    9.6012    9.0222 C.2     3  LIG3        0.2460
    131 C           2.0458    9.9593    6.6586 C.3     3  LIG3        0.0522
    132 H           1.7374    9.5562    5.7973 H       3  LIG3        0.0549
    133 C           1.8849   11.4728    6.4855 C.ar    3  LIG3       -0.0271
    134 C           0.9031   12.2049    7.1456 C.ar    3  LIG3       -0.0568
    135 H           0.3369   11.7687    7.7705 H       3  LIG3        0.0621
    136 C           0.7357   13.5641    6.9068 C.ar    3  LIG3       -0.0614
    137 H           0.0650   14.0484    7.3730 H       3  LIG3        0.0618
    138 C           1.5457   14.2111    5.9898 C.ar    3  LIG3       -0.0617
    139 H           1.4270   15.1377    5.8180 H       3  LIG3        0.0618
    140 C           2.5287   13.5004    5.3258 C.ar    3  LIG3       -0.0614
    141 H           3.0849   13.9404    4.6938 H       3  LIG3        0.0618
    142 C           2.7064   12.1454    5.5791 C.ar    3  LIG3       -0.0568
    143 H           3.3953   11.6711    5.1295 H       3  LIG3        0.0621
    144 C           3.5021    9.5042    6.8273 C.3     3  LIG3       -0.0421
    145 H           3.8960    9.9513    7.6052 H       3  LIG3        0.0251
    146 H           4.0128    9.7373    6.0247 H       3  LIG3        0.0251
    147 H           3.5278    8.5335    6.9596 H       3  LIG3        0.0251
    148 N           1.1186    6.6097   15.0632 N.am    4  LIG4       -0.2527
    149 O           2.8858    8.0099   15.7749 O.3     4  LIG4       -0.4676
    150 O          -0.4087    6.5393   13.3948 O.2     4  LIG4       -0.2702
    151 C           1.7034    7.2823   16.2071 C.3     4  LIG4        0.1847
    152 C           2.2041    6.4130   17.3543 C.3     4  LIG4        0.0050
    153 H           3.1178    6.0767   17.1740 H       4  LIG4        0.0321
    154 H           1.6011    5.6424   17.5048 H       4  LIG4        0.0321
    155 C           2.1948    7.3792   18.5782 C.3     4  LIG4       -0.0474
    156 H           1.6830    6.9828   19.3269 H       4  LIG4        0.0267
    157 H           3.1195    7.5543   18.8865 H       4  LIG4        0.0267
    158 C           1.5296    8.6867   18.1061 C.3     4  LIG4       -0.0439
    159 H           0.9359    9.0592   18.8054 H       4  LIG4        0.0270
    160 H           2.2076    9.3648   17.8609 H       4  LIG4        0.0270
    161 C           0.7288    8.2391   16.8829 C.3     4  LIG4        0.0275
    162 H          -0.0607    7.7127   17.1995 H       4  LIG4        0.0366
    163 C           0.2524    9.2326   15.8349 C.3     4  LIG4        0.0251
    164 H          -0.3073    9.9491   16.2518 H       4  LIG4        0.0404
    165 C           1.4297    9.8318   15.0895 C.ar    4  LIG4        0.0024
    166 C           2.6495    9.1598   15.0502 C.ar    4  LIG4        0.1272
    167 C           3.7046    9.6212   14.2719 C.ar    4  LIG4       -0.0195
    168 H           4.5284    9.1486   14.2579 H       4  LIG4        0.0654
    169 C           3.5500   10.7712   13.5185 C.ar    4  LIG4       -0.0583
    170 H           4.2625   11.0811   12.9731 H       4  LIG4        0.0619
    171 C           2.3526   11.4699   13.5616 C.ar    4  LIG4       -0.0613
    172 H           2.2520   12.2685   13.0574 H       4  LIG4        0.0618
    173 C           1.3005   11.0042   14.3399 C.ar    4  LIG4       -0.0545
    174 H           0.4831   11.4887   14.3628 H       4  LIG4        0.0622
    175 C          -0.5652    8.4056   14.8629 C.2     4  LIG4        0.0155
    176 C          -1.7466    8.7671   14.4032 C.2     4  LIG4       -0.0900
    177 H          -2.2018    8.2160   13.7777 H       4  LIG4        0.0539
    178 H          -2.1424    9.5794   14.6967 H       4  LIG4        0.0539
    179 C           0.0423    7.1107   14.3797 C.2     4  LIG4        0.2460
    180 C           1.9201    5.5248   14.4393 C.3     4  LIG4        0.0522
    181 H           2.6680    5.3337   15.0752 H       4  LIG4        0.0549
    182 C           1.1293    4.2267   14.3162 C.ar    4  LIG4       -0.0271
    183 C           0.0448    3.9613   15.1548 C.ar    4  LIG4       -0.0568
    184 H          -0.2321    4.6166   15.7843 H       4  LIG4        0.0621
    185 C          -0.6329    2.7539   15.0811 C.ar    4  LIG4       -0.0614
    186 H          -1.3751    2.5943   15.6524 H       4  LIG4        0.0618
    187 C          -0.2347    1.7761   14.1770 C.ar    4  LIG4       -0.0617
    188 H          -0.6935    0.9454   14.1291 H       4  LIG4        0.0618
    189 C           0.8409    2.0349   13.3476 C.ar    4  LIG4       -0.0614
    190 H           1.1213    1.3737   12.7267 H       4  LIG4        0.0618
    191 C           1.5183    3.2460   13.4074 C.ar    4  LIG4       -0.0568
    192 H           2.2513    3.4067   12.8253 H       4  LIG4        0.0621
    193 C           2.5820    6.0140   13.1431 C.3     4  LIG4       -0.0421
    194 H           1.8921    6.1871   12.4691 H       4  LIG4        0.0251
    195 H           3.1975    5.3277   12.8110 H       4  LIG4        0.0251
    196 H           3.0786    6.8405   13.3214 H       4  LIG4        0.0251
    197 O           2.0345    5.5463    4.3674 O.3     5  LIG5       -0.3803
    198 C           0.8839    5.9526    3.6423 C.3     5  LIG5        0.0448
    199 H           1.0069    5.7683    2.6776 H       5  LIG5        0.0557
    200 H           0.7347    6.9251    3.7573 H       5  LIG5        0.0557
    201 C          -0.3017    5.1805    4.1704 C.3     5  LIG5       -0.0416
    202 H          -0.1028    4.2218    4.1484 H       5  LIG5        0.0252
    203 H          -1.0862    5.3632    3.6126 H       5  LIG5        0.0252
    204 H          -0.4868    5.4554    5.0929 H       5  LIG5        0.0252
    205 C           3.1721    6.3553    4.1627 C.3     5  LIG5        0.0448
    206 H           2.9649    7.2959    4.3933 H       5  LIG5        0.0557
    207 H           3.4463    6.3204    3.2119 H       5  LIG5        0.0557
    208 C           4.2846    5.8409    5.0398 C.3     5  LIG5       -0.0416
    209 H           4.0346    5.9500    5.9817 H       5  LIG5        0.0252
    210 H           5.1038    6.3486    4.8592 H       5  LIG5        0.0252
    211 H           4.4386    4.8925    4.8496 H       5  LIG5        0.0252
@<TRIPOS>BOND
     1    31    29    1
     2    30    29    1
     3    29    28    2
     4    20    19    1
     5    17    16    1
     6    28    16    1
     7    28    32    1
     8    22    21    1
     9    19    21   ar
    10    19    18   ar
    11    16    18    1
    12    16    14    1
    13     3    32    2
    14    21    23   ar
    15    32     1   am
    16    18    27   ar
    17    15    14    1
    18    14    11    1
    19    14     4    1
    20    12    11    1
    21    23    24    1
    22    23    25   ar
    23    37    36    1
    24     1     4    1
    25     1    33    1
    26    47    46    1
    27    27    25   ar
    28    27     2    1
    29    11    13    1
    30    11     8    1
    31    39    38    1
    32     4     2    1
    33     4     5    1
    34    25    26    1
    35    49    46    1
    36    36    38   ar
    37    36    35   ar
    38    46    33    1
    39    46    48    1
    40    38    40   ar
    41    33    35    1
    42    33    34    1
    43     9     8    1
    44    35    44   ar
    45     8     5    1
    46     8    10    1
    47     7     5    1
    48     5     6    1
    49   199   198    1
    50    40    41    1
    51    40    42   ar
    52   207   205    1
    53    44    42   ar
    54    44    45    1
    55   203   201    1
    56   198   200    1
    57   198   201    1
    58   198   197    1
    59    42    43    1
    60   202   201    1
    61   205   197    1
    62   205   206    1
    63   205   208    1
    64   201   204    1
    65   141   140    1
    66   211   208    1
    67   210   208    1
    68   208   209    1
    69   143   142    1
    70   104   103    1
    71   140   142   ar
    72   140   138   ar
    73    58    57    1
    74   107   106    1
    75   142   133   ar
    76    61    60    1
    77   132   131    1
    78   139   138    1
    79    59    57    1
    80   138   136   ar
    81   108   106    1
    82   146   144    1
    83   103   105    1
    84   103   106    1
    85   103   102    1
    86    57    60    1
    87    57    54    1
    88   106   109    1
    89    60    62    1
    90    60    63    1
    91   133   131    1
    92   133   134   ar
    93   119   118    1
    94   131   144    1
    95   131    99    1
    96   144   147    1
    97   144   145    1
    98   100   102    1
    99   100   117    1
   100   136   134   ar
   101   136   137    1
   102   134   135    1
   103   102    99    1
   104   102   112    1
   105    56    54    1
   106    54    55    1
   107    54    53    1
   108    64    63    1
   109   118   117   ar
   110   118   120   ar
   111   109   111    1
   112   109   110    1
   113   109   112    1
   114    99   130   am
   115    63    53    1
   116    63    65    1
   117   117   116   ar
   118    66    65    1
   119   121   120    1
   120   112   113    1
   121   112   114    1
   122    53    51    1
   123    53    50    1
   124   120   122   ar
   125    65    67    1
   126    65    77    1
   127    51    68    1
   128    86    85    1
   129   130   101    2
   130   130   126    1
   131    88    87    1
   132   116   114    1
   133   116   124   ar
   134    67    68   ar
   135    67    75   ar
   136    68    69   ar
   137   114   126    1
   138   114   115    1
   139    85    87   ar
   140    85    84   ar
   141    50    81   am
   142    50    82    1
   143    87    89   ar
   144    77    78    2
   145    77    81    1
   146    83    82    1
   147   122   124   ar
   148   122   123    1
   149    80    78    1
   150    76    75    1
   151    75    73   ar
   152   126   127    2
   153   124   125    1
   154    78    79    1
   155    69    70    1
   156    69    71   ar
   157    81    52    2
   158    82    84    1
   159    82    95    1
   160    84    93   ar
   161    89    90    1
   162    89    91   ar
   163    73    71   ar
   164    73    74    1
   165    71    72    1
   166   127   128    1
   167   127   129    1
   168    93    91   ar
   169    93    94    1
   170    91    92    1
   171    98    95    1
   172    95    97    1
   173    95    96    1
   174   194   193    1
   175   190   189    1
   176   195   193    1
   177   192   191    1
   178   170   169    1
   179   172   171    1
   180   193   196    1
   181   193   180    1
   182   189   191   ar
   183   189   187   ar
   184   150   179    2
   185   191   182   ar
   186   169   171   ar
   187   169   167   ar
   188   171   173   ar
   189   177   176    1
   190   188   187    1
   191   187   185   ar
   192   168   167    1
   193   167   166   ar
   194   182   180    1
   195   182   183   ar
   196   173   174    1
   197   173   165   ar
   198   179   175    1
   199   179   148   am
   200   176   178    1
   201   176   175    2
   202   180   148    1
   203   180   181    1
   204   175   163    1
   205   166   165   ar
   206   166   149    1
   207   148   151    1
   208   185   183   ar
   209   185   186    1
   210   165   163    1
   211   183   184    1
   212   149   151    1
   213   163   164    1
   214   163   161    1
   215   151   161    1
   216   151   152    1
   217   161   162    1
   218   161   158    1
   219   153   152    1
   220   152   154    1
   221   152   155    1
   222   160   158    1
   223   158   155    1
   224   158   159    1
   225   155   157    1
   226   155   156    1
