@<TRIPOS>MOLECULE
3Me2
 37 37 0 0 0
SMALL
GASTEIGER

@<TRIPOS>ATOM
      1 O           8.6186    0.4521    9.3456 O.3     1  LIG1       -0.4645
      2 O          15.5131    0.7875    7.1905 O.2     1  LIG1       -0.4910
      3 O           9.2025    2.6253    9.3199 O.2     1  LIG1       -0.2450
      4 C           7.3187    0.8328    9.8452 C.3     1  LIG1        0.0820
      5 H           7.4249    1.3653   10.6607 H       1  LIG1        0.0661
      6 H           6.7982    0.0279   10.0466 H       1  LIG1        0.0661
      7 H           6.8496    1.3636    9.1676 H       1  LIG1        0.0661
      8 C           9.4849    1.4604    9.1538 C.2     1  LIG1        0.3389
      9 C          10.8211    0.9692    8.7131 C.ar    1  LIG1        0.0590
     10 C          11.1056   -0.3914    8.5967 C.ar    1  LIG1       -0.0474
     11 H          10.4341   -1.0351    8.7915 H       1  LIG1        0.0626
     12 C          12.3712   -0.8049    8.1955 C.ar    1  LIG1       -0.0546
     13 H          12.5588   -1.7333    8.1169 H       1  LIG1        0.0622
     14 C          13.3687    0.1280    7.9069 C.ar    1  LIG1       -0.0104
     15 C          14.7269   -0.3596    7.4686 C.3     1  LIG1        0.1142
     16 H          15.1466   -0.8971    8.1859 H       1  LIG1        0.0747
     17 H          14.6453   -0.9233    6.6591 H       1  LIG1        0.0747
     18 C          16.8040    0.6291    6.7660 C.2     1  LIG1        0.1071
     19 C          17.4679   -0.5765    6.5384 C.3     1  LIG1        0.0375
     20 H          17.0196   -1.3998    6.6944 H       1  LIG1        0.0393
     21 C          11.8130    1.9058    8.4363 C.ar    1  LIG1       -0.0474
     22 H          11.6244    2.8324    8.5215 H       1  LIG1        0.0626
     23 C          13.0810    1.4892    8.0354 C.ar    1  LIG1       -0.0546
     24 H          13.7525    2.1342    7.8485 H       1  LIG1        0.0622
     25 C          17.4740    1.8270    6.5341 C.2     1  LIG1        0.0093
     26 C          16.8977    3.2297    6.7240 C.3     1  LIG1        0.0377
     27 H          15.9491    3.2284    7.0427 H       1  LIG1        0.0447
     28 C          17.8632    3.8836    7.7043 C.2     1  LIG1       -0.0353
     29 C          17.5460    4.3302    8.9812 C.2     1  LIG1       -0.0754
     30 H          16.6442    4.3423    9.2778 H       1  LIG1        0.0578
     31 C          18.5765    4.7614    9.8232 C.3     1  LIG1       -0.0087
     32 H          18.3739    5.0619   10.7011 H       1  LIG1        0.0355
     33 C          16.3682    4.7539    3.2344 C.3     1  LIG1       -0.0087
     34 H          15.6753    5.0406    2.6515 H       1  LIG1        0.0355
     35 C          16.0532    4.3267    4.5291 C.2     1  LIG1       -0.0754
     36 H          15.1534    4.3390    4.8353 H       1  LIG1        0.0578
     37 C          17.0753    3.8836    5.3600 C.2     1  LIG1       -0.0353
@<TRIPOS>BOND
     1    34    33    1
     2    33    35    1
     3    35    36    1
     4    35    37    2
     5    37    26    1
     6    25    26    1
     7    25    18    2
     8    19    20    1
     9    19    18    1
    10    17    15    1
    11    26    27    1
    12    26    28    1
    13    18     2    1
    14     2    15    1
    15    15    14    1
    16    15    16    1
    17    28    29    2
    18    24    23    1
    19    14    23   ar
    20    14    12   ar
    21    23    21   ar
    22    13    12    1
    23    12    10   ar
    24    21    22    1
    25    21     9   ar
    26    10     9   ar
    27    10    11    1
    28     9     8    1
    29    29    30    1
    30    29    31    1
    31     8     3    2
    32     8     1    1
    33     7     4    1
    34     1     4    1
    35    31    32    1
    36     4     6    1
    37     4     5    1
