@<TRIPOS>MOLECULE
7238960.cif
 53 55 0 0 0
SMALL
GASTEIGER

@<TRIPOS>ATOM
      1 S           3.4789    0.9177    5.3599 S.O2    1  LIG1        0.1743
      2 O           4.0905    1.4835    4.2155 O.2     1  LIG1       -0.1261
      3 O           1.9421    0.8125    5.0686 O.3     1  LIG1       -0.2162
      4 O           3.9775   -0.3047    5.8584 O.2     1  LIG1       -0.1261
      5 O           5.5003    2.3978    6.7737 O.2     1  LIG1       -0.2245
      6 O           3.9667    3.5697    7.9868 O.3     1  LIG1       -0.4435
      7 N           3.2706    2.0234    6.5744 N.am    1  LIG1       -0.1075
      8 C           1.1841    1.0045    6.3268 C.3     1  LIG1        0.1175
      9 H           1.2957    0.2194    6.9023 H       1  LIG1        0.0646
     10 C           1.8718    2.2242    6.9764 C.3     1  LIG1        0.1077
     11 H           1.8056    2.1466    7.9517 H       1  LIG1        0.0597
     12 C           4.3786    2.6636    7.1105 C.2     1  LIG1        0.4250
     13 C           4.8684    4.6604    8.4375 C.3     1  LIG1        0.1068
     14 C           3.9690    5.4522    9.3539 C.3     1  LIG1       -0.0253
     15 H           3.6929    4.8985   10.0877 H       1  LIG1        0.0268
     16 H           3.1953    5.7475    8.8671 H       1  LIG1        0.0268
     17 H           4.4453    6.2147    9.6903 H       1  LIG1        0.0268
     18 C           5.2631    5.4723    7.2286 C.3     1  LIG1       -0.0253
     19 H           4.4770    5.7090    6.7311 H       1  LIG1        0.0268
     20 H           5.8490    4.9541    6.6730 H       1  LIG1        0.0268
     21 H           5.7156    6.2702    7.5126 H       1  LIG1        0.0268
     22 C           6.0632    4.0994    9.1470 C.3     1  LIG1       -0.0253
     23 H           5.7742    3.4627    9.8049 H       1  LIG1        0.0268
     24 H           6.5418    4.8102    9.5786 H       1  LIG1        0.0268
     25 H           6.6377    3.6664    8.5114 H       1  LIG1        0.0268
     26 C          -0.2662    1.1664    5.9715 C.3     1  LIG1        0.0032
     27 H          -0.3452    1.9201    5.3646 H       1  LIG1        0.0340
     28 H          -0.7510    1.3959    6.7802 H       1  LIG1        0.0340
     29 C          -0.9497   -0.0208    5.3361 C.ar    1  LIG1       -0.0448
     30 C          -0.3337   -1.2341    5.0863 C.ar    1  LIG1       -0.0582
     31 H           0.5584   -1.3518    5.3200 H       1  LIG1        0.0620
     32 C          -1.0268   -2.2765    4.4934 C.ar    1  LIG1       -0.0586
     33 H          -0.5886   -3.0824    4.3405 H       1  LIG1        0.0620
     34 C          -2.3463   -2.1514    4.1237 C.ar    1  LIG1       -0.0504
     35 C          -2.9572   -0.9428    4.3782 C.ar    1  LIG1       -0.0586
     36 H          -3.8501   -0.8276    4.1426 H       1  LIG1        0.0620
     37 C          -2.2783    0.1020    4.9745 C.ar    1  LIG1       -0.0582
     38 H          -2.7225    0.9031    5.1354 H       1  LIG1        0.0620
     39 C          -3.1050   -3.2982    3.5128 C.3     1  LIG1       -0.0397
     40 H          -2.5696   -3.7077    2.8297 H       1  LIG1        0.0278
     41 H          -3.9214   -2.9727    3.1274 H       1  LIG1        0.0278
     42 H          -3.3081   -3.9456    4.1917 H       1  LIG1        0.0278
     43 C           1.3310    3.5742    6.5523 C.ar    1  LIG1       -0.0225
     44 C           1.7601    4.2097    5.4066 C.ar    1  LIG1       -0.0567
     45 H           2.4269    3.8231    4.8868 H       1  LIG1        0.0621
     46 C           1.2080    5.4163    5.0250 C.ar    1  LIG1       -0.0614
     47 H           1.5092    5.8343    4.2497 H       1  LIG1        0.0618
     48 C           0.2320    6.0014    5.7656 C.ar    1  LIG1       -0.0617
     49 H          -0.1410    6.8101    5.4986 H       1  LIG1        0.0618
     50 C          -0.1995    5.3844    6.9157 C.ar    1  LIG1       -0.0614
     51 H          -0.8667    5.7774    7.4307 H       1  LIG1        0.0618
     52 C           0.3541    4.1823    7.3089 C.ar    1  LIG1       -0.0567
     53 H           0.0643    3.7789    8.0946 H       1  LIG1        0.0621
@<TRIPOS>BOND
     1    40    39    1
     2    41    39    1
     3    39    34    1
     4    39    42    1
     5    34    35   ar
     6    34    32   ar
     7    36    35    1
     8     2     1    2
     9    47    46    1
    10    33    32    1
    11    35    37   ar
    12    32    30   ar
    13    45    44    1
    14    37    38    1
    15    37    29   ar
    16    46    44   ar
    17    46    48   ar
    18     3     1    1
    19     3     8    1
    20    30    31    1
    21    30    29   ar
    22    29    26    1
    23     1     4    2
    24     1     7    1
    25    27    26    1
    26    44    43   ar
    27    49    48    1
    28    48    50   ar
    29    26     8    1
    30    26    28    1
    31     8     9    1
    32     8    10    1
    33    43    10    1
    34    43    52   ar
    35     7    10    1
    36     7    12   am
    37    20    18    1
    38    19    18    1
    39     5    12    2
    40    50    52   ar
    41    50    51    1
    42    10    11    1
    43    12     6    1
    44    18    21    1
    45    18    13    1
    46    52    53    1
    47     6    13    1
    48    13    22    1
    49    13    14    1
    50    25    22    1
    51    16    14    1
    52    22    24    1
    53    22    23    1
    54    14    17    1
    55    14    15    1
