@<TRIPOS>MOLECULE
10,11,12,13-Tetrahydrophenanthro[9,10-b]benzofuran-13-ol
 38 42 0 0 0
SMALL
GASTEIGER

@<TRIPOS>ATOM
      1 O           6.9918   10.3408    2.9114 O.2     1  LIG1       -0.4587
      2 O           9.5057   12.8108    0.2502 O.3     1  LIG1       -0.3871
      3 H          10.1334   13.3028    0.0613 H       1  LIG1        0.2102
      4 C           7.0819    9.5367    1.8010 C.ar    1  LIG1        0.1438
      5 C           8.0888    9.9487    0.9727 C.ar    1  LIG1        0.0344
      6 C           6.2675    8.3857    1.6106 C.ar    1  LIG1        0.0256
      7 C           5.2553    7.9981    2.4953 C.ar    1  LIG1       -0.0505
      8 H           5.0658    8.5222    3.2398 H       1  LIG1        0.0625
      9 C           8.3321    9.2386   -0.2541 C.ar    1  LIG1       -0.0062
     10 C           6.5544    7.6169    0.4583 C.ar    1  LIG1       -0.0066
     11 C           7.5719    8.0656   -0.5021 C.ar    1  LIG1       -0.0094
     12 C           9.8930   11.9232    1.3033 C.3     1  LIG1        0.0840
     13 H          10.6118   11.3429    0.9778 H       1  LIG1        0.0645
     14 C           8.0091   11.2663    2.7764 C.ar    1  LIG1        0.1120
     15 C           8.7042   11.0748    1.6385 C.ar    1  LIG1        0.0301
     16 C           8.2289   12.2706    3.8351 C.3     1  LIG1        0.0060
     17 H           8.5670   11.8409    4.6367 H       1  LIG1        0.0344
     18 H           7.3937   12.7110    4.0535 H       1  LIG1        0.0344
     19 C           9.2707    9.6752   -1.2077 C.ar    1  LIG1       -0.0533
     20 H           9.7642   10.4467   -1.0464 H       1  LIG1        0.0624
     21 C           4.8408    6.0688    1.1611 C.ar    1  LIG1       -0.0611
     22 H           4.3656    5.2833    1.0170 H       1  LIG1        0.0618
     23 C          10.3743   12.6458    2.5453 C.3     1  LIG1       -0.0222
     24 H          11.0103   13.3305    2.2865 H       1  LIG1        0.0293
     25 H          10.8345   12.0146    3.1197 H       1  LIG1        0.0293
     26 C           9.4635    8.9775   -2.3676 C.ar    1  LIG1       -0.0611
     27 H          10.0882    9.2738   -2.9899 H       1  LIG1        0.0618
     28 C           7.8076    7.3857   -1.7103 C.ar    1  LIG1       -0.0534
     29 H           7.3227    6.6145   -1.8993 H       1  LIG1        0.0624
     30 C           8.7307    7.8306   -2.6156 C.ar    1  LIG1       -0.0611
     31 H           8.8670    7.3585   -3.4040 H       1  LIG1        0.0618
     32 C           4.5433    6.8522    2.2728 C.ar    1  LIG1       -0.0611
     33 H           3.8668    6.5991    2.8575 H       1  LIG1        0.0618
     34 C           5.8153    6.4317    0.2831 C.ar    1  LIG1       -0.0533
     35 H           5.9968    5.8859   -0.4485 H       1  LIG1        0.0624
     36 C           9.2394   13.2921    3.3241 C.3     1  LIG1       -0.0435
     37 H           8.7844   13.9300    2.7521 H       1  LIG1        0.0270
     38 H           9.6089   13.7778    4.0780 H       1  LIG1        0.0270
@<TRIPOS>BOND
     1    31    30    1
     2    27    26    1
     3    30    26   ar
     4    30    28   ar
     5    26    19   ar
     6    29    28    1
     7    28    11   ar
     8    19    20    1
     9    19     9   ar
    10    11     9   ar
    11    11    10   ar
    12    35    34    1
    13     9     5   ar
    14     3     2    1
    15     2    12    1
    16    34    10   ar
    17    34    21   ar
    18    10     6   ar
    19     5    15   ar
    20     5     4   ar
    21    13    12    1
    22    22    21    1
    23    21    32   ar
    24    12    15    1
    25    12    23    1
    26     6     4   ar
    27     6     7   ar
    28    15    14   ar
    29     4     1   ar
    30    32     7   ar
    31    32    33    1
    32    24    23    1
    33     7     8    1
    34    23    25    1
    35    23    36    1
    36    37    36    1
    37    14     1   ar
    38    14    16    1
    39    36    16    1
    40    36    38    1
    41    16    18    1
    42    16    17    1
