@<TRIPOS>MOLECULE
C13 H10 I N O4
 29 30 0 0 0
SMALL
GASTEIGER

@<TRIPOS>ATOM
      1 I           2.4890    4.7420    7.4042 I       1  LIG1       -0.0400
      2 O           5.3706   -0.1630    2.1474 O.3     1  LIG1       -0.4069
      3 O           7.4182   -0.4362    3.0793 O.2     1  LIG1       -0.2428
      4 O           5.0534    5.1636    9.1531 O.3     1  LIG1       -0.4250
      5 O           4.9860    3.7223   10.8688 O.2     1  LIG1       -0.2507
      6 N           4.3575    1.1860    3.6668 N.2     1  LIG1       -0.2099
      7 C           4.6252    2.8515    6.3350 C.ar    1  LIG1       -0.0378
      8 H           3.9568    2.6088    5.7053 H       1  LIG1        0.0635
      9 C           4.3465    3.7863    7.3245 C.ar    1  LIG1        0.0562
     10 C           5.3282    4.1410    8.2442 C.ar    1  LIG1        0.1447
     11 C           6.5785    3.5732    8.1999 C.ar    1  LIG1       -0.0176
     12 H           7.2403    3.8184    8.8364 H       1  LIG1        0.0655
     13 C           6.8651    2.6370    7.2154 C.ar    1  LIG1       -0.0510
     14 H           7.7284    2.2410    7.1812 H       1  LIG1        0.0625
     15 C           5.8986    2.2685    6.2721 C.ar    1  LIG1       -0.0216
     16 C           6.3068    1.3353    5.2277 C.2     1  LIG1       -0.0220
     17 H           7.1745    0.9656    5.3422 H       1  LIG1        0.0647
     18 C           5.6575    0.9140    4.1332 C.2     1  LIG1        0.1520
     19 C           6.3234    0.0397    3.1411 C.2     1  LIG1        0.3641
     20 C           4.2481    0.5411    2.5586 C.2     1  LIG1        0.1973
     21 C           3.0860    0.4398    1.6575 C.3     1  LIG1        0.0123
     22 H           2.2632    0.5922    2.1679 H       1  LIG1        0.0324
     23 H           3.0608   -0.4536    1.2555 H       1  LIG1        0.0324
     24 H           3.1611    1.1140    0.9500 H       1  LIG1        0.0324
     25 C           4.8340    4.8306   10.4596 C.2     1  LIG1        0.3092
     26 C           4.3836    6.0286   11.2246 C.3     1  LIG1        0.0336
     27 H           4.5541    5.8891   12.1801 H       1  LIG1        0.0342
     28 H           3.4243    6.1673   11.0807 H       1  LIG1        0.0342
     29 H           4.8779    6.8174   10.9168 H       1  LIG1        0.0342
@<TRIPOS>BOND
     1    24    21    1
     2    23    21    1
     3    21    22    1
     4    21    20    1
     5     2    20    1
     6     2    19    1
     7    20     6    2
     8     3    19    2
     9    19    18    1
    10     6    18    1
    11    18    16    2
    12    16    17    1
    13    16    15    1
    14     8     7    1
    15    15     7   ar
    16    15    13   ar
    17     7     9   ar
    18    14    13    1
    19    13    11   ar
    20     9     1    1
    21     9    10   ar
    22    11    10   ar
    23    11    12    1
    24    10     4    1
    25     4    25    1
    26    25     5    2
    27    25    26    1
    28    29    26    1
    29    28    26    1
    30    26    27    1
