@<TRIPOS>MOLECULE
1-Pentafluorophenyl-2,2,3,3,4,4,5,5,6,6-decafluorocylohexanol
 58 60 0 0 0
SMALL
GASTEIGER

@<TRIPOS>ATOM
      1 F           5.5528    8.8539    0.6940 F       1  LIG1       -0.2019
      2 F           5.6881   10.7028   -1.1168 F       1  LIG1       -0.1993
      3 F           7.8538   12.3265   -1.3445 F       1  LIG1       -0.1993
      4 F           9.9661   11.9650    0.3457 F       1  LIG1       -0.1993
      5 F           9.9399   10.1108    2.1776 F       1  LIG1       -0.2019
      6 F           8.7208    9.5924    4.2893 F       1  LIG1       -0.1951
      7 F           6.5414    9.5545    4.2084 F       1  LIG1       -0.1951
      8 F           7.8724    8.3399    6.3711 F       1  LIG1       -0.1921
      9 F           6.4368    7.1359    5.2709 F       1  LIG1       -0.1921
     10 F           9.9304    7.1956    5.2165 F       1  LIG1       -0.1920
     11 F           8.5352    5.6571    5.8946 F       1  LIG1       -0.1920
     12 F           9.8181    5.2574    3.4336 F       1  LIG1       -0.1921
     13 F           7.6459    5.2189    3.4709 F       1  LIG1       -0.1921
     14 F           9.9727    7.6322    2.4544 F       1  LIG1       -0.1951
     15 F           8.5356    6.4904    1.2826 F       1  LIG1       -0.1951
     16 O           6.4674    7.4393    2.5432 O.3     1  LIG1       -0.3730
     17 H           5.8465    7.8958    2.7492 H       1  LIG1        0.2111
     18 C           7.7537    9.3220    1.5617 C.ar    1  LIG1        0.0721
     19 C           6.7051    9.5595    0.6708 C.ar    1  LIG1        0.1705
     20 C           6.7412   10.5398   -0.3049 C.ar    1  LIG1        0.1968
     21 C           7.8346   11.3528   -0.4258 C.ar    1  LIG1        0.1991
     22 C           8.8970   11.1686    0.4258 C.ar    1  LIG1        0.1968
     23 C           8.8553   10.1784    1.3951 C.ar    1  LIG1        0.1705
     24 C           7.6366    8.2036    2.6362 C.3     1  LIG1        0.2353
     25 C           7.6640    8.7961    4.0734 C.3     1  LIG1        0.3546
     26 C           7.6521    7.7263    5.1934 C.3     1  LIG1        0.3813
     27 C           8.7194    6.6427    4.9953 C.3     1  LIG1        0.3838
     28 C           8.7181    6.0291    3.5783 C.3     1  LIG1        0.3813
     29 C           8.7340    7.1127    2.4655 C.3     1  LIG1        0.3546
     30 F           0.2760    8.8736    0.8866 F       2  LIG2       -0.2019
     31 F           0.1677   10.6399   -1.0371 F       2  LIG2       -0.1993
     32 F           2.0825   12.5586   -1.3053 F       2  LIG2       -0.1993
     33 F           4.1301   12.6565    0.4893 F       2  LIG2       -0.1993
     34 F           4.3258   10.9290    2.4255 F       2  LIG2       -0.2019
     35 F           1.7461    9.9573    4.5627 F       2  LIG2       -0.1951
     36 F           0.2853    8.7111    3.5157 F       2  LIG2       -0.1951
     37 F           2.8049    7.8933    5.8003 F       2  LIG2       -0.1921
     38 F           0.6325    7.7398    5.9068 F       2  LIG2       -0.1921
     39 F           2.0917    5.3767    5.4880 F       2  LIG2       -0.1920
     40 F           0.5292    5.9027    4.0522 F       2  LIG2       -0.1920
     41 F           2.5488    4.8725    2.7643 F       2  LIG2       -0.1921
     42 F           4.0065    6.0762    3.8336 F       2  LIG2       -0.1921
     43 F           1.4566    6.8675    1.5947 F       2  LIG2       -0.1951
     44 F           3.6091    7.0578    1.3885 F       2  LIG2       -0.1951
     45 O           3.8641    8.6809    3.4075 O.3     2  LIG2       -0.3730
     46 H           3.8447    9.2885    3.8153 H       2  LIG2        0.2111
     47 C           2.3579    9.7097    1.7376 C.ar    2  LIG2        0.0721
     48 C           1.2909    9.7451    0.8281 C.ar    2  LIG2        0.1705
     49 C           1.2022   10.6799   -0.1898 C.ar    2  LIG2        0.1968
     50 C           2.1613   11.6546   -0.3337 C.ar    2  LIG2        0.1991
     51 C           3.1950   11.6954    0.5772 C.ar    2  LIG2        0.1968
     52 C           3.2824   10.7502    1.5817 C.ar    2  LIG2        0.1705
     53 C           2.5748    8.6212    2.8225 C.3     2  LIG2        0.2353
     54 C           1.5504    8.7511    3.9784 C.3     2  LIG2        0.3546
     55 C           1.6929    7.6615    5.0817 C.3     2  LIG2        0.3813
     56 C           1.7555    6.2349    4.5039 C.3     2  LIG2        0.3838
     57 C           2.7541    6.0749    3.3437 C.3     2  LIG2        0.3813
     58 C           2.5817    7.1720    2.2589 C.3     2  LIG2        0.3546
@<TRIPOS>BOND
     1     3    21    1
     2    32    50    1
     3     2    20    1
     4    31    49    1
     5    21    20   ar
     6    21    22   ar
     7    50    49   ar
     8    50    51   ar
     9    20    19   ar
    10    49    48   ar
    11     4    22    1
    12    22    23   ar
    13    33    51    1
    14    51    52   ar
    15    19     1    1
    16    19    18   ar
    17    48    30    1
    18    48    47   ar
    19    15    29    1
    20    44    58    1
    21    23    18   ar
    22    23     5    1
    23    18    24    1
    24    52    47   ar
    25    52    34    1
    26    43    58    1
    27    47    53    1
    28    58    53    1
    29    58    57    1
    30    14    29    1
    31    29    24    1
    32    29    28    1
    33    16    24    1
    34    16    17    1
    35    24    25    1
    36    41    57    1
    37    53    45    1
    38    53    54    1
    39    57    42    1
    40    57    56    1
    41    45    46    1
    42    12    28    1
    43    13    28    1
    44    36    54    1
    45    28    27    1
    46    54    35    1
    47    54    55    1
    48    40    56    1
    49    25     7    1
    50    25     6    1
    51    25    26    1
    52    56    55    1
    53    56    39    1
    54    27    26    1
    55    27    10    1
    56    27    11    1
    57    55    37    1
    58    55    38    1
    59    26     9    1
    60    26     8    1
