@<TRIPOS>MOLECULE
7238971.cif
 37 37 0 0 0
SMALL
GASTEIGER

@<TRIPOS>ATOM
      1 O          11.5646   12.4937    6.2990 O.3     1  LIG1       -0.3415
      2 O          13.6741   12.2692    5.3586 O.2     1  LIG1       -0.4667
      3 O          15.0772    8.5134    5.7514 O.3     1  LIG1       -0.4646
      4 O          13.1638    7.5520    5.0432 O.2     1  LIG1       -0.2452
      5 O           9.1450    9.2206    3.9370 O.2     1  LIG1       -0.2508
      6 O           8.5370   10.0678    5.9120 O.3     1  LIG1       -0.4679
      7 C          12.2707   12.5226    5.0753 C.3     1  LIG1        0.2240
      8 H          12.1796   13.4124    4.6737 H       1  LIG1        0.1108
      9 C          14.0283   10.9757    5.4703 C.2     1  LIG1        0.0988
     10 H          14.8782   10.8005    5.8054 H       1  LIG1        0.1030
     11 C          13.2834    9.9245    5.1505 C.2     1  LIG1        0.0785
     12 C          11.8882   10.0684    4.5744 C.3     1  LIG1        0.0307
     13 H          11.8191    9.4952    3.7822 H       1  LIG1        0.0404
     14 C          10.8328    9.6116    5.6017 C.3     1  LIG1        0.0559
     15 H          11.0493    8.7155    5.9033 H       1  LIG1        0.0387
     16 H          10.8643   10.1998    6.3728 H       1  LIG1        0.0387
     17 C           9.4411    9.6179    5.0351 C.2     1  LIG1        0.3077
     18 C          11.1221   11.9369    3.0206 C.2     1  LIG1       -0.0814
     19 H          11.0728   12.8605    2.9206 H       1  LIG1        0.0571
     20 C          11.7038   11.5064    4.1421 C.2     1  LIG1        0.0018
     21 C          10.5404   11.1297    1.9042 C.3     1  LIG1       -0.0464
     22 H          10.7447   10.2011    2.0408 H       1  LIG1        0.0272
     23 H          10.9152   11.4200    1.0697 H       1  LIG1        0.0272
     24 H           9.5884   11.2486    1.8860 H       1  LIG1        0.0272
     25 C          13.7936    8.5541    5.3016 C.2     1  LIG1        0.3384
     26 C           7.1606   10.0033    5.4506 C.3     1  LIG1        0.0817
     27 H           6.9927   10.7254    4.8416 H       1  LIG1        0.0661
     28 H           6.5669   10.0734    6.2019 H       1  LIG1        0.0661
     29 H           7.0129    9.1661    5.0030 H       1  LIG1        0.0661
     30 C          11.8420   13.6227    7.1255 C.3     1  LIG1        0.0408
     31 H          12.7664   13.6127    7.3811 H       1  LIG1        0.0525
     32 H          11.2922   13.5864    7.9112 H       1  LIG1        0.0525
     33 H          11.6522   14.4287    6.6393 H       1  LIG1        0.0525
     34 C          15.6477    7.1887    5.8419 C.3     1  LIG1        0.0820
     35 H          15.1541    6.6705    6.4816 H       1  LIG1        0.0661
     36 H          16.5637    7.2525    6.1209 H       1  LIG1        0.0661
     37 H          15.6042    6.7619    4.9826 H       1  LIG1        0.0661
@<TRIPOS>BOND
     1    23    21    1
     2    24    21    1
     3    21    22    1
     4    21    18    1
     5    19    18    1
     6    18    20    2
     7    13    12    1
     8     5    17    2
     9    20    12    1
    10    20     7    1
    11    12    11    1
    12    12    14    1
    13     8     7    1
    14    27    26    1
    15    37    34    1
    16    29    26    1
    17    17    14    1
    18    17     6    1
    19     4    25    2
    20     7     2    1
    21     7     1    1
    22    11    25    1
    23    11     9    2
    24    25     3    1
    25     2     9    1
    26    26     6    1
    27    26    28    1
    28     9    10    1
    29    14    15    1
    30    14    16    1
    31     3    34    1
    32    34    36    1
    33    34    35    1
    34     1    30    1
    35    33    30    1
    36    30    31    1
    37    30    32    1
