@<TRIPOS>MOLECULE
TR205
 33 35 0 0 0
SMALL
GASTEIGER

@<TRIPOS>ATOM
      1 O           7.3468    8.0383   12.9754 O.2     1  LIG1       -0.2758
      2 O           4.4927    9.1692    8.9934 O.2     1  LIG1       -0.2914
      3 O           2.8224    8.2885   13.2758 O.3     1  LIG1       -0.3499
      4 H           1.9502    8.2596   13.2759 H       1  LIG1        0.2142
      5 O           2.6281    6.4458   11.8971 O.3     1  LIG1       -0.4540
      6 O          -0.2699    6.9038    7.2501 O.3     1  LIG1       -0.5068
      7 H           0.0360    7.5044    6.7855 H       1  LIG1        0.2921
      8 N           5.3203    7.0470   13.1836 N.am    1  LIG1       -0.2838
      9 H           4.8253    6.5086   13.6728 H       1  LIG1        0.1547
     10 C           7.0661    6.4854   14.7776 C.3     1  LIG1        0.0125
     11 H           7.8102    5.8968   14.5299 H       1  LIG1        0.0323
     12 H           6.3198    5.9445   15.1110 H       1  LIG1        0.0323
     13 H           7.3591    7.1049   15.4776 H       1  LIG1        0.0323
     14 C           6.6236    7.2599   13.5787 C.2     1  LIG1        0.2140
     15 C           4.7439    7.6192   12.0777 C.2     1  LIG1        0.0867
     16 C           5.3088    8.0872   10.9534 C.2     1  LIG1        0.0054
     17 H           6.2364    8.0479   10.7520 H       1  LIG1        0.0670
     18 C           4.2977    8.6595   10.0947 C.2     1  LIG1        0.1747
     19 C           3.2312    7.7585   12.0707 C.3     1  LIG1        0.2664
     20 C           2.9232    8.5736   10.7694 C.3     1  LIG1        0.1292
     21 C           2.3547    9.9662   11.0093 C.3     1  LIG1       -0.0417
     22 H           2.2246   10.4185   10.1497 H       1  LIG1        0.0245
     23 H           2.9786   10.4835   11.5598 H       1  LIG1        0.0245
     24 H           1.4940    9.8923   11.4727 H       1  LIG1        0.0245
     25 C           1.9941    7.6521   10.0260 C.ar    1  LIG1        0.0179
     26 C           1.8905    6.4693   10.7324 C.ar    1  LIG1        0.1292
     27 C           1.0888    5.4286   10.2991 C.ar    1  LIG1       -0.0161
     28 H           1.0193    4.6221   10.7965 H       1  LIG1        0.0655
     29 C           0.3864    5.6036    9.1083 C.ar    1  LIG1       -0.0167
     30 H          -0.1601    4.9001    8.7776 H       1  LIG1        0.0655
     31 C           0.4750    6.7941    8.3995 C.ar    1  LIG1        0.1174
     32 C           1.2802    7.8427    8.8505 C.ar    1  LIG1       -0.0124
     33 H           1.3383    8.6592    8.3684 H       1  LIG1        0.0658
@<TRIPOS>BOND
     1     7     6    1
     2     6    31    1
     3    33    32    1
     4    31    32   ar
     5    31    29   ar
     6    30    29    1
     7    32    25   ar
     8     2    18    2
     9    29    27   ar
    10    25    26   ar
    11    25    20    1
    12    18    20    1
    13    18    16    1
    14    22    21    1
    15    27    26   ar
    16    27    28    1
    17    26     5    1
    18    17    16    1
    19    20    21    1
    20    20    19    1
    21    16    15    2
    22    21    24    1
    23    21    23    1
    24     5    19    1
    25    19    15    1
    26    19     3    1
    27    15     8    1
    28     1    14    2
    29     8    14   am
    30     8     9    1
    31     3     4    1
    32    14    10    1
    33    11    10    1
    34    10    12    1
    35    10    13    1
