@<TRIPOS>MOLECULE
C31 H50 O6, H2 O
 180 186 0 0 0
SMALL
GASTEIGER

@<TRIPOS>ATOM
      1 O           8.1063    0.5809   10.5525 O.3     1  LIG1       -0.3907
      2 H           8.7018    0.2350   11.0341 H       1  LIG1        0.2098
      3 O          10.8541    1.1311   12.4174 O.2     1  LIG1       -0.2503
      4 O          11.2836    2.3262   10.6241 O.3     1  LIG1       -0.4802
      5 H          11.8277    2.9081   10.8910 H       1  LIG1        0.2951
      6 O           6.3414    7.0747    9.6664 O.3     1  LIG1       -0.3718
      7 O           6.9315    9.7102    9.9062 O.2     1  LIG1       -0.5084
      8 H           6.2345    9.2931    9.6924 H       1  LIG1        0.2918
      9 O          12.1773   13.0616   11.1919 O.3     1  LIG1       -0.3912
     10 H          11.9241   13.0468   11.9924 H       1  LIG1        0.2098
     11 C           7.3044    4.2596    9.8949 C.3     1  LIG1       -0.0446
     12 H           6.4333    4.7019    9.7354 H       1  LIG1        0.0272
     13 H           7.8597    4.3808    9.0850 H       1  LIG1        0.0272
     14 C           7.0698    2.7524   10.1249 C.3     1  LIG1       -0.0253
     15 H           6.4560    2.6346   10.8932 H       1  LIG1        0.0291
     16 H           6.6312    2.3681    9.3255 H       1  LIG1        0.0291
     17 C           8.3689    1.9835   10.4011 C.3     1  LIG1        0.0710
     18 H           8.9634    2.0985    9.6062 H       1  LIG1        0.0604
     19 C           9.0962    2.5560   11.6140 C.3     1  LIG1        0.0938
     20 C           9.2760    4.0966   11.3924 C.3     1  LIG1       -0.0173
     21 H           9.8305    4.1737   10.5630 H       1  LIG1        0.0317
     22 C          10.1307    4.7262   12.4931 C.3     1  LIG1       -0.0481
     23 H           9.5750    4.9050   13.2934 H       1  LIG1        0.0269
     24 H          10.8598    4.1079   12.7519 H       1  LIG1        0.0269
     25 C          10.7107    6.0231   11.9617 C.3     1  LIG1       -0.0462
     26 H          11.2955    5.8201   11.1882 H       1  LIG1        0.0271
     27 H          11.2730    6.4359   12.6639 H       1  LIG1        0.0271
     28 C           9.6324    7.0413   11.5200 C.3     1  LIG1       -0.0168
     29 C           8.5085    6.3629   10.6591 C.3     1  LIG1        0.0042
     30 H           8.9023    6.2395    9.7485 H       1  LIG1        0.0341
     31 C           8.0073    4.9422   11.1008 C.3     1  LIG1       -0.0220
     32 C           7.3984    7.4369   10.4965 C.3     1  LIG1        0.1187
     33 H           6.9898    7.5171   11.4049 H       1  LIG1        0.0680
     34 C           7.9312    8.8145   10.1950 C.2     1  LIG1        0.1230
     35 C           9.2171    9.2045   10.2357 C.2     1  LIG1       -0.0194
     36 C          10.2818    8.1682   10.6479 C.3     1  LIG1       -0.0015
     37 C          11.4045    8.8452   11.4906 C.3     1  LIG1       -0.0427
     38 H          11.0877    8.9362   12.4244 H       1  LIG1        0.0274
     39 H          12.1952    8.2500   11.5001 H       1  LIG1        0.0274
     40 C          11.8377   10.2256   10.9858 C.3     1  LIG1       -0.0439
     41 H          12.2841   10.1263   10.1072 H       1  LIG1        0.0272
     42 H          12.4938   10.6135   11.6177 H       1  LIG1        0.0272
     43 C          10.6465   11.1867   10.8414 C.3     1  LIG1        0.0008
     44 C           9.6284   10.5975    9.8290 C.3     1  LIG1       -0.0053
     45 H           8.8067   11.1641    9.8947 H       1  LIG1        0.0356
     46 C          10.1142   10.6866    8.3217 C.3     1  LIG1       -0.0340
     47 H          10.9204   10.1014    8.2281 H       1  LIG1        0.0307
     48 C          10.5399   12.1283    7.9712 C.3     1  LIG1       -0.0384
     49 H           9.7447   12.7257    8.0784 H       1  LIG1        0.0302
     50 C          11.6086   12.5908    8.9120 C.3     1  LIG1       -0.0235
     51 H          11.8765   13.5135    8.6747 H       1  LIG1        0.0293
     52 H          12.4016   12.0071    8.8192 H       1  LIG1        0.0293
     53 C          11.1263   12.5601   10.3464 C.3     1  LIG1        0.0614
     54 H          10.3544   13.1925   10.4190 H       1  LIG1        0.0599
     55 C          10.5028    1.9362   11.6532 C.2     1  LIG1        0.3135
     56 C           8.4163    2.1800   12.9516 C.3     1  LIG1       -0.0467
     57 H           8.5274    1.2208   13.1175 H       1  LIG1        0.0241
     58 H           7.4596    2.3934   12.9034 H       1  LIG1        0.0241
     59 H           8.8261    2.6880   13.6823 H       1  LIG1        0.0241
     60 C           7.0123    4.9812   12.2730 C.3     1  LIG1       -0.0589
     61 H           7.5028    5.0589   13.1170 H       1  LIG1        0.0235
     62 H           6.4802    4.1576   12.2784 H       1  LIG1        0.0235
     63 H           6.4157    5.7529   12.1696 H       1  LIG1        0.0235
     64 C           9.0277    7.6166   12.8394 C.3     1  LIG1       -0.0584
     65 H           8.4713    8.3972   12.6298 H       1  LIG1        0.0235
     66 H           9.7513    7.8845   13.4420 H       1  LIG1        0.0235
     67 H           8.4767    6.9317   13.2728 H       1  LIG1        0.0235
     68 C          10.9497    7.6068    9.3719 C.3     1  LIG1       -0.0552
     69 H          10.2796    7.5220    8.6625 H       1  LIG1        0.0238
     70 H          11.3356    6.7274    9.5651 H       1  LIG1        0.0238
     71 H          11.6592    8.2176    9.0794 H       1  LIG1        0.0238
     72 C           9.9440   11.3859   12.1860 C.3     1  LIG1       -0.0567
     73 H           9.1458   11.9384   12.0593 H       1  LIG1        0.0236
     74 H          10.5555   11.8335   12.8095 H       1  LIG1        0.0236
     75 H           9.6858   10.5150   12.5524 H       1  LIG1        0.0236
     76 C           9.0202   10.1267    7.3921 C.3     1  LIG1       -0.0616
     77 H           8.6762    9.2862    7.7599 H       1  LIG1        0.0233
     78 H           9.3974    9.9646    6.5026 H       1  LIG1        0.0233
     79 H           8.2877   10.7757    7.3222 H       1  LIG1        0.0233
     80 C          11.0122   12.2105    6.5200 C.3     1  LIG1       -0.0621
     81 H          11.7235   11.5533    6.3700 H       1  LIG1        0.0233
     82 H          11.3559   13.1105    6.3387 H       1  LIG1        0.0233
     83 H          10.2608   12.0212    5.9200 H       1  LIG1        0.0233
     84 C           6.7161    7.0747    8.3498 C.3     1  LIG1        0.0374
     85 H           5.9388    6.8683    7.7895 H       1  LIG1        0.0524
     86 H           7.4104    6.3986    8.2076 H       1  LIG1        0.0524
     87 H           7.0658    7.9583    8.1101 H       1  LIG1        0.0524
     88 O          17.8792   14.3361   11.4667 O.3     2  LIG2       -0.3907
     89 H          17.1731   14.7008   11.7384 H       2  LIG2        0.2098
     90 O          15.0227   13.8458   12.7721 O.2     2  LIG2       -0.2503
     91 O          14.7138   12.5532   11.0629 O.3     2  LIG2       -0.4802
     92 H          13.9696   12.9406   11.0257 H       2  LIG2        0.2951
     93 O          19.6916    7.8966   10.3689 O.3     2  LIG2       -0.3718
     94 O          19.0785    5.2361   10.4698 O.2     2  LIG2       -0.5084
     95 H          18.8507    4.7198    9.8475 H       2  LIG2        0.2918
     96 O          13.8185    1.8443   11.2326 O.3     2  LIG2       -0.3912
     97 H          13.3705    1.3032   10.7716 H       2  LIG2        0.2098
     98 C          18.7234   10.6950   10.7208 C.3     2  LIG2       -0.0446
     99 H          18.2465   10.6210    9.8554 H       2  LIG2        0.0272
    100 H          19.6018   10.2522   10.6218 H       2  LIG2        0.0272
    101 C          18.9451   12.1924   11.0489 C.3     2  LIG2       -0.0253
    102 H          19.4679   12.2686   11.8851 H       2  LIG2        0.0291
    103 H          19.4673   12.6119   10.3211 H       2  LIG2        0.0291
    104 C          17.6309   12.9321   11.2115 C.3     2  LIG2        0.0710
    105 H          17.1333   12.8640   10.3465 H       2  LIG2        0.0604
    106 C          16.7548   12.3317   12.2954 C.3     2  LIG2        0.0938
    107 C          16.6139   10.7995   11.9967 C.3     2  LIG2       -0.0173
    108 H          16.1438   10.7531   11.1148 H       2  LIG2        0.0317
    109 C          15.6695   10.1225   12.9740 C.3     2  LIG2       -0.0481
    110 H          16.1456    9.9008   13.8130 H       2  LIG2        0.0269
    111 H          14.9144   10.7260   13.1932 H       2  LIG2        0.0269
    112 C          15.1543    8.8661   12.3220 C.3     2  LIG2       -0.0462
    113 H          14.6620    9.1114   11.4990 H       2  LIG2        0.0271
    114 H          14.5144    8.4256   12.9356 H       2  LIG2        0.0271
    115 C          16.2607    7.8659   11.9575 C.3     2  LIG2       -0.0168
    116 C          17.4565    8.5582   11.2508 C.3     2  LIG2        0.0042
    117 H          17.1541    8.7188   10.3105 H       2  LIG2        0.0341
    118 C          17.9200    9.9748   11.7920 C.3     2  LIG2       -0.0220
    119 C          18.5669    7.4982   11.1485 C.3     2  LIG2        0.1187
    120 H          18.9113    7.3766   12.0794 H       2  LIG2        0.0680
    121 C          18.0667    6.1345   10.7138 C.2     2  LIG2        0.1230
    122 C          16.7865    5.7682   10.6058 C.2     2  LIG2       -0.0194
    123 C          15.6772    6.7613   10.9858 C.3     2  LIG2       -0.0015
    124 C          14.5113    6.0245   11.7065 C.3     2  LIG2       -0.0427
    125 H          14.7610    5.8953   12.6557 H       2  LIG2        0.0274
    126 H          13.7117    6.6072   11.6856 H       2  LIG2        0.0274
    127 C          14.1352    4.6677   11.1176 C.3     2  LIG2       -0.0439
    128 H          13.7662    4.7962   10.2082 H       2  LIG2        0.0272
    129 H          13.4321    4.2515   11.6768 H       2  LIG2        0.0272
    130 C          15.3485    3.7303   11.0461 C.3     2  LIG2        0.0008
    131 C          16.4261    4.3585   10.1137 C.3     2  LIG2       -0.0053
    132 H          17.2502    3.8011   10.2103 H       2  LIG2        0.0356
    133 C          16.0552    4.3543    8.5965 C.3     2  LIG2       -0.0340
    134 H          15.2389    4.9221    8.4871 H       2  LIG2        0.0307
    135 C          15.6991    2.9391    8.1198 C.3     2  LIG2       -0.0384
    136 H          16.4997    2.3577    8.2554 H       2  LIG2        0.0302
    137 C          14.5540    2.3777    8.9835 C.3     2  LIG2       -0.0235
    138 H          13.7471    2.9387    8.8628 H       2  LIG2        0.0293
    139 H          14.3367    1.4606    8.6837 H       2  LIG2        0.0293
    140 C          14.9258    2.3499   10.4446 C.3     2  LIG2        0.0614
    141 H          15.6934    1.7185   10.5533 H       2  LIG2        0.0599
    142 C          15.3810   12.9808   12.1257 C.2     2  LIG2        0.3135
    143 C          17.3005   12.6730   13.6583 C.3     2  LIG2       -0.0467
    144 H          17.3404   13.6464   13.7603 H       2  LIG2        0.0241
    145 H          18.2002   12.2966   13.7527 H       2  LIG2        0.0241
    146 H          16.7148   12.2958   14.3483 H       2  LIG2        0.0241
    147 C          18.8065    9.8523   13.0652 C.3     2  LIG2       -0.0589
    148 H          18.2641    9.5270   13.8125 H       2  LIG2        0.0235
    149 H          19.1809   10.7298   13.2894 H       2  LIG2        0.0235
    150 H          19.5382    9.2208   12.8939 H       2  LIG2        0.0235
    151 C          16.7213    7.2349   13.2979 C.3     2  LIG2       -0.0584
    152 H          15.9401    6.9304   13.8026 H       2  LIG2        0.0235
    153 H          17.2107    7.9032   13.8221 H       2  LIG2        0.0235
    154 H          17.3098    6.4716   13.1138 H       2  LIG2        0.0235
    155 C          15.1156    7.3798    9.6874 C.3     2  LIG2       -0.0552
    156 H          15.8568    7.6762    9.1202 H       2  LIG2        0.0238
    157 H          14.5474    8.1467    9.9108 H       2  LIG2        0.0238
    158 H          14.5851    6.7088    9.2092 H       2  LIG2        0.0238
    159 C          15.9702    3.4921   12.4076 C.3     2  LIG2       -0.0567
    160 H          16.6935    2.8369   12.3262 H       2  LIG2        0.0236
    161 H          15.2874    3.1518   13.0226 H       2  LIG2        0.0236
    162 H          16.3300    4.3357   12.7534 H       2  LIG2        0.0236
    163 C          17.1614    4.9700    7.7286 C.3     2  LIG2       -0.0616
    164 H          17.3301    5.8913    8.0179 H       2  LIG2        0.0233
    165 H          16.8786    4.9699    6.7898 H       2  LIG2        0.0233
    166 H          17.9822    4.4430    7.8221 H       2  LIG2        0.0233
    167 C          15.3453    2.9154    6.6223 C.3     2  LIG2       -0.0621
    168 H          14.5511    3.4676    6.4642 H       2  LIG2        0.0233
    169 H          15.1613    1.9930    6.3444 H       2  LIG2        0.0233
    170 H          16.0973    3.2685    6.1029 H       2  LIG2        0.0233
    171 C          19.4424    7.9356    9.0326 C.3     2  LIG2        0.0374
    172 H          20.0343    8.5925    8.6089 H       2  LIG2        0.0524
    173 H          18.5089    8.1921    8.8808 H       2  LIG2        0.0524
    174 H          19.6056    7.0511    8.6435 H       2  LIG2        0.0524
    175 O          21.6944    5.5411    9.6706 O.3     3  HOH3       -0.4105
    176 H          21.9706    4.7965    9.3120 H       0  HOH0        0.2052
    177 H          22.3742    6.0803    9.6004 H       0  HOH0        0.2052
    178 O           4.4255    9.4386   11.0447 O.3     4  HOH4       -0.4105
    179 H           3.7148    9.9115   11.2044 H       0  HOH0        0.2052
    180 H           4.2192    8.6358   11.3085 H       0  HOH0        0.2052
@<TRIPOS>BOND
     1    83    80    1
     2   170   167    1
     3    82    80    1
     4   169   167    1
     5    81    80    1
     6   168   167    1
     7    78    76    1
     8    80    48    1
     9   167   135    1
    10   165   163    1
    11    79    76    1
    12    76    77    1
    13    76    46    1
    14   163   166    1
    15   163   164    1
    16   163   133    1
    17    85    84    1
    18    48    49    1
    19    48    46    1
    20    48    50    1
    21    87    84    1
    22   135   136    1
    23   135   133    1
    24   135   137    1
    25    86    84    1
    26    47    46    1
    27    46    44    1
    28    84     6    1
    29   134   133    1
    30   133   131    1
    31   172   171    1
    32   174   171    1
    33    69    68    1
    34    51    50    1
    35   139   137    1
    36    52    50    1
    37   138   137    1
    38   173   171    1
    39    50    53    1
    40   137   140    1
    41   171    93    1
    42    71    68    1
    43    13    11    1
    44   156   155    1
    45   158   155    1
    46   176   175    1
    47    16    14    1
    48    68    70    1
    49    68    36    1
    50   177   175    1
    51    18    17    1
    52     6    32    1
    53   155   157    1
    54   155   123    1
    55     8     7    1
    56    12    11    1
    57    30    29    1
    58    44    45    1
    59    44    35    1
    60    44    43    1
    61    95    94    1
    62    99    98    1
    63    11    14    1
    64    11    31    1
    65     7    34    1
    66    41    40    1
    67   131   132    1
    68   131   122    1
    69   131   130    1
    70    14    17    1
    71    14    15    1
    72    34    35    2
    73    34    32    1
    74   128   127    1
    75    35    36    1
    76   117   116    1
    77   103   101    1
    78    53    54    1
    79    53    43    1
    80    53     9    1
    81   105   104    1
    82    93   119    1
    83    17     1    1
    84    17    19    1
    85   140   141    1
    86   140   130    1
    87   140    96    1
    88    94   121    1
    89    32    29    1
    90    32    33    1
    91     1     2    1
    92    21    20    1
    93   122   121    2
    94   122   123    1
    95   100    98    1
    96     4     5    1
    97     4    55    1
    98    36    37    1
    99    36    28    1
   100    29    31    1
   101    29    28    1
   102   121   119    1
   103    98   101    1
   104    98   118    1
   105    97    96    1
   106    43    40    1
   107    43    72    1
   108    40    37    1
   109    40    42    1
   110   123   124    1
   111   123   115    1
   112    92    91    1
   113   178   179    1
   114   178   180    1
   115   130   127    1
   116   130   159    1
   117   101   104    1
   118   101   102    1
   119    91   142    1
   120    31    20    1
   121    31    60    1
   122   108   107    1
   123   127   129    1
   124   127   124    1
   125   119   116    1
   126   119   120    1
   127    26    25    1
   128     9    10    1
   129   104    88    1
   130   104   106    1
   131   116   118    1
   132   116   115    1
   133    20    19    1
   134    20    22    1
   135    88    89    1
   136    37    39    1
   137    37    38    1
   138   113   112    1
   139    28    25    1
   140    28    64    1
   141    19    55    1
   142    19    56    1
   143    55     3    2
   144   126   124    1
   145   124   125    1
   146   118   107    1
   147   118   147    1
   148   115   112    1
   149   115   151    1
   150    25    22    1
   151    25    27    1
   152   107   106    1
   153   107   109    1
   154    73    72    1
   155   142   106    1
   156   142    90    2
   157    63    60    1
   158    72    75    1
   159    72    74    1
   160    60    62    1
   161    60    61    1
   162   106   143    1
   163   112   114    1
   164   112   109    1
   165   160   159    1
   166   159   162    1
   167   159   161    1
   168    22    24    1
   169    22    23    1
   170    65    64    1
   171    64    67    1
   172    64    66    1
   173   150   147    1
   174    58    56    1
   175    56    57    1
   176    56    59    1
   177   109   111    1
   178   109   110    1
   179   147   149    1
   180   147   148    1
   181   154   151    1
   182   151   152    1
   183   151   153    1
   184   143   145    1
   185   143   144    1
   186   143   146    1
