@<TRIPOS>MOLECULE
4,5-diiodo-1-ethyl-3-methylimidazolium bis(trifluoromethanesulfonyl)amide
 34 33 0 0 0
SMALL
GASTEIGER

@<TRIPOS>ATOM
      1 C           1.2451   15.7711    4.9156 C.3     1  LIG1        0.5387
      2 N           5.0599   12.3300    2.5190 N.pl3   2  LIG2       -0.3049
      3 I           6.0485   11.2625   -0.1668 I       2  LIG2       -0.0244
      4 I           6.3446   15.1689   -0.3158 I       2  LIG2       -0.0244
      5 S           0.8426   14.9484    3.3294 S.O2    1  LIG1        0.1638
      6 O           2.1232   14.6764    2.7392 O.2     1  LIG1       -0.1468
      7 N          -0.0215   13.7007    3.6839 N.3     1  LIG1        0.0775
      8 S           0.5495   12.2714    4.0889 S.O2    1  LIG1        0.1638
      9 O           0.0133   15.9113    2.6797 O.2     1  LIG1       -0.1468
     10 O           1.9509   12.2119    4.3423 O.2     1  LIG1       -0.1468
     11 O          -0.0638   11.2588    3.2975 O.2     1  LIG1       -0.1468
     12 F           0.1483   16.0383    5.6077 F       1  LIG1       -0.1492
     13 N           5.2107   14.4884    2.4366 N.pl3   2  LIG2       -0.3021
     14 C           5.6804   13.9971    1.2265 C.2     2  LIG2        0.0977
     15 C           4.8445   13.4501    3.1848 C.3     2  LIG2        0.1265
     16 H           4.4850   13.5068    4.0610 H       2  LIG2        0.0746
     17 C           5.1088   15.9042    2.8303 C.3     2  LIG2        0.0116
     18 H           4.2506   16.2723    2.5019 H       2  LIG2        0.0462
     19 H           5.8419   16.4141    2.4019 H       2  LIG2        0.0462
     20 C           5.5926   12.6374    1.2810 C.2     2  LIG2        0.0974
     21 C          -0.2568   12.0854    5.7199 C.3     1  LIG1        0.5387
     22 F           0.0712   13.0483    6.5614 F       1  LIG1       -0.1492
     23 F           0.1069   10.9255    6.2693 F       1  LIG1       -0.1492
     24 C           4.7617   10.9763    3.0347 C.3     2  LIG2        0.0030
     25 H           4.2696   11.0491    3.8793 H       2  LIG2        0.0428
     26 H           5.6001   10.4915    3.1867 H       2  LIG2        0.0428
     27 H           4.2174   10.4899    2.3808 H       2  LIG2        0.0428
     28 F           2.0346   15.0150    5.6733 F       1  LIG1       -0.1492
     29 F           1.8797   16.9102    4.6686 F       1  LIG1       -0.1492
     30 F          -1.5756   12.0744    5.5822 F       1  LIG1       -0.1492
     31 C           5.1850   16.0838    4.3154 C.3     2  LIG2       -0.0493
     32 H           4.4221   15.6374    4.7379 H       2  LIG2        0.0245
     33 H           5.1651   17.0394    4.5298 H       2  LIG2        0.0245
     34 H           6.0192   15.6921    4.6483 H       2  LIG2        0.0245
@<TRIPOS>BOND
     1     4    14    1
     2     3    20    1
     3    14    20    2
     4    14    13    1
     5    20     2    1
     6    27    24    1
     7    19    17    1
     8    13    17    1
     9    13    15    1
    10    18    17    1
    11     2    24    1
    12     2    15    1
    13     9     5    2
    14     6     5    2
    15    17    31    1
    16    24    26    1
    17    24    25    1
    18    15    16    1
    19    11     8    2
    20     5     7    1
    21     5     1    1
    22     7     8    1
    23     8    10    2
    24     8    21    1
    25    31    33    1
    26    31    34    1
    27    31    32    1
    28    29     1    1
    29     1    12    1
    30     1    28    1
    31    30    21    1
    32    21    23    1
    33    21    22    1
