@<TRIPOS>MOLECULE
C18 H16 F N2 O2
 39 41 0 0 0
SMALL
GASTEIGER

@<TRIPOS>ATOM
      1 H          -3.6397    4.3033   12.5621 H       1  LIG1        0.1482
      2 N          -1.6488    3.4060   10.7576 N.am    1  LIG1       -0.2546
      3 O          -2.1682   -1.1411   15.0565 O.3     1  LIG1       -0.4922
      4 C          -2.9728    2.9650   11.2236 C.3     1  LIG1        0.1203
      5 H          -3.4387    2.5660   10.4600 H       1  LIG1        0.0765
      6 N          -3.7689    4.0481   11.6983 N.pl3   1  LIG1       -0.3218
      7 F          -0.7930   -1.0472   12.8403 F       1  LIG1       -0.2016
      8 C          -2.8135    1.8892   12.2776 C.ar    1  LIG1       -0.0060
      9 O          -1.7785    2.7035    8.5900 O.2     1  LIG1       -0.2745
     10 C          -4.2318    5.0479   10.8516 C.ar    1  LIG1        0.0287
     11 C          -3.5973    1.8324   13.4184 C.ar    1  LIG1       -0.0516
     12 H          -4.2584    2.4736   13.5465 H       1  LIG1        0.0623
     13 C          -1.1753    3.2283    9.5026 C.2     1  LIG1        0.2290
     14 C          -4.4552    4.8558    9.4922 C.ar    1  LIG1       -0.0408
     15 H          -4.2182    4.0511    9.0921 H       1  LIG1        0.0636
     16 C          -1.8681    0.8925   12.0976 C.ar    1  LIG1       -0.0163
     17 H          -1.3350    0.8898   11.3351 H       1  LIG1        0.0651
     18 C          -2.4606   -0.1266   14.1990 C.ar    1  LIG1        0.1551
     19 C          -3.4221    0.8461   14.3700 C.ar    1  LIG1       -0.0167
     20 H          -3.9558    0.8381   15.1316 H       1  LIG1        0.0655
     21 C          -1.7185   -0.0832   13.0357 C.ar    1  LIG1        0.1651
     22 C          -4.5497    6.2809   11.3906 C.ar    1  LIG1       -0.0408
     23 H          -4.3727    6.4463   12.2891 H       1  LIG1        0.0636
     24 C          -5.0268    5.8538    8.7413 C.ar    1  LIG1       -0.0600
     25 H          -5.1817    5.7085    7.8359 H       1  LIG1        0.0618
     26 C          -0.7320    4.0890   11.6431 C.2     1  LIG1       -0.0018
     27 H          -0.8541    4.2829   12.5439 H       1  LIG1        0.0782
     28 C           0.2265    3.7757    9.4584 C.3     1  LIG1        0.0702
     29 H           0.8248    3.7252    8.7486 H       1  LIG1        0.0448
     30 C          -5.1263    7.2714   10.6190 C.ar    1  LIG1       -0.0600
     31 H          -5.3485    8.0880   11.0037 H       1  LIG1        0.0618
     32 C          -5.3722    7.0521    9.2887 C.ar    1  LIG1       -0.0616
     33 H          -5.7692    7.7121    8.7680 H       1  LIG1        0.0618
     34 C          -2.7957   -1.1169   16.3308 C.3     1  LIG1        0.0789
     35 H          -2.5799   -0.2961   16.7787 H       1  LIG1        0.0660
     36 H          -2.4842   -1.8579   16.8551 H       1  LIG1        0.0660
     37 H          -3.7470   -1.1812   16.2203 H       1  LIG1        0.0660
     38 C           0.4595    4.4176   10.7925 C.2     1  LIG1       -0.0570
     39 H           1.1994    4.9221   11.0438 H       1  LIG1        0.0592
@<TRIPOS>BOND
     1    25    24    1
     2     9    13    2
     3    24    32   ar
     4    24    14   ar
     5    29    28    1
     6    33    32    1
     7    15    14    1
     8    32    30   ar
     9    28    13    1
    10    28    38    1
    11    14    10   ar
    12    13     2   am
    13     5     4    1
    14    30    31    1
    15    30    22   ar
    16     2     4    1
    17     2    26    1
    18    38    39    1
    19    38    26    2
    20    10    22   ar
    21    10     6    1
    22     4     6    1
    23     4     8    1
    24    17    16    1
    25    22    23    1
    26    26    27    1
    27     6     1    1
    28    16     8   ar
    29    16    21   ar
    30     8    11   ar
    31     7    21    1
    32    21    18   ar
    33    11    12    1
    34    11    19   ar
    35    18    19   ar
    36    18     3    1
    37    19    20    1
    38     3    34    1
    39    37    34    1
    40    34    35    1
    41    34    36    1
