@<TRIPOS>MOLECULE
C30 H20 Cl2 N4 O2
 58 64 0 0 0
SMALL
GASTEIGER

@<TRIPOS>ATOM
      1 CL          5.2916    0.4307    6.3414 Cl      1  LIG1       -0.0828
      2 CL          2.6524    6.5439    9.8348 Cl      1  LIG1       -0.0828
      3 O           6.7028    3.3726    1.8283 O.2     1  LIG1       -0.2680
      4 O           1.5769    9.2686    5.1836 O.2     1  LIG1       -0.2680
      5 N           4.5605    4.3194    4.1619 N.ar    1  LIG1       -0.2398
      6 N           4.5185    3.7125    1.2499 N.am    1  LIG1       -0.2656
      7 C           5.5109    3.4440    2.1232 C.2     1  LIG1        0.2692
      8 C           5.1045    3.2702    3.5675 C.ar    1  LIG1        0.1280
      9 C           5.3834    2.0590    4.2173 C.ar    1  LIG1       -0.0122
     10 H           5.7923    1.3376    3.7540 H       1  LIG1        0.0655
     11 C           5.0510    1.9504    5.5316 C.ar    1  LIG1        0.0524
     12 C           4.5118    3.0445    6.2479 C.ar    1  LIG1        0.0209
     13 C           4.2233    3.0270    7.6462 C.ar    1  LIG1       -0.0504
     14 H           4.3809    2.2337    8.1443 H       1  LIG1        0.0625
     15 C           3.7272    4.1258    8.2793 C.ar    1  LIG1       -0.0504
     16 H           3.5465    4.0936    9.2120 H       1  LIG1        0.0625
     17 C           3.4764    5.3291    7.5462 C.ar    1  LIG1        0.0209
     18 C           2.9436    6.5066    8.1337 C.ar    1  LIG1        0.0524
     19 C           2.6691    7.6175    7.3766 C.ar    1  LIG1       -0.0122
     20 H           2.2773    8.3940    7.7589 H       1  LIG1        0.0655
     21 C           2.9951    7.5545    6.0083 C.ar    1  LIG1        0.1280
     22 N           3.5155    6.4977    5.4077 N.ar    1  LIG1       -0.2398
     23 C           3.7320    5.3940    6.1572 C.ar    1  LIG1        0.0991
     24 C           4.2901    4.2160    5.4845 C.ar    1  LIG1        0.0991
     25 C           2.6904    8.7378    5.1248 C.2     1  LIG1        0.2692
     26 N           3.6760    9.1255    4.2815 N.am    1  LIG1       -0.2656
     27 C           3.0673    3.5760    1.5666 C.3     1  LIG1        0.0242
     28 H           2.7820    4.2767    2.2042 H       1  LIG1        0.0472
     29 H           2.8793    2.6887    1.9646 H       1  LIG1        0.0472
     30 C           2.3436    3.7322    0.2382 C.3     1  LIG1       -0.0097
     31 H           1.9392    2.8747   -0.0476 H       1  LIG1        0.0329
     32 H           1.6318    4.4167    0.3013 H       1  LIG1        0.0329
     33 C           3.4157    4.1612   -0.7161 C.ar    1  LIG1       -0.0245
     34 C           3.3173    4.5968   -2.0235 C.ar    1  LIG1       -0.0568
     35 H           2.4695    4.6404   -2.4494 H       1  LIG1        0.0621
     36 C           4.4657    4.9703   -2.7115 C.ar    1  LIG1       -0.0614
     37 H           4.4047    5.2721   -3.6111 H       1  LIG1        0.0618
     38 C           5.7004    4.9006   -2.0851 C.ar    1  LIG1       -0.0600
     39 H           6.4772    5.1738   -2.5587 H       1  LIG1        0.0618
     40 C           5.8295    4.4418   -0.7777 C.ar    1  LIG1       -0.0400
     41 H           6.6810    4.3698   -0.3629 H       1  LIG1        0.0636
     42 C           4.6716    4.0930   -0.1051 C.ar    1  LIG1        0.0398
     43 C           5.0824    8.6402    4.3216 C.3     1  LIG1        0.0242
     44 H           5.1607    7.7518    3.8914 H       1  LIG1        0.0472
     45 H           5.4056    8.5754    5.2548 H       1  LIG1        0.0472
     46 C           5.8789    9.6983    3.5396 C.3     1  LIG1       -0.0097
     47 H           6.3459   10.3193    4.1534 H       1  LIG1        0.0329
     48 H           6.5429    9.2740    2.9399 H       1  LIG1        0.0329
     49 C           4.8108   10.4130    2.7514 C.ar    1  LIG1       -0.0245
     50 C           4.9371   11.3053    1.7040 C.ar    1  LIG1       -0.0568
     51 H           5.7944   11.5314    1.3620 H       1  LIG1        0.0621
     52 C           3.7832   11.8674    1.1589 C.ar    1  LIG1       -0.0614
     53 H           3.8516   12.4797    0.4372 H       1  LIG1        0.0618
     54 C           2.5372   11.5359    1.6661 C.ar    1  LIG1       -0.0600
     55 H           1.7622   11.9297    1.2836 H       1  LIG1        0.0618
     56 C           2.3930   10.6439    2.7171 C.ar    1  LIG1       -0.0400
     57 H           1.5355   10.4256    3.0646 H       1  LIG1        0.0636
     58 C           3.5499   10.0800    3.2465 C.ar    1  LIG1        0.0398
@<TRIPOS>BOND
     1    37    36    1
     2    36    38   ar
     3    36    34   ar
     4    39    38    1
     5    35    34    1
     6    38    40   ar
     7    34    33   ar
     8    40    41    1
     9    40    42   ar
    10    33    42   ar
    11    33    30    1
    12    42     6    1
    13    31    30    1
    14    30    32    1
    15    30    27    1
    16    53    52    1
    17    52    54   ar
    18    52    50   ar
    19     6    27    1
    20     6     7   am
    21    55    54    1
    22    51    50    1
    23    27    29    1
    24    27    28    1
    25    54    56   ar
    26    50    49   ar
    27     3     7    2
    28     7     8    1
    29    56    57    1
    30    56    58   ar
    31    49    58   ar
    32    49    46    1
    33    48    46    1
    34    58    26    1
    35    46    47    1
    36    46    43    1
    37     8     5   ar
    38     8     9   ar
    39    10     9    1
    40    44    43    1
    41     5    24   ar
    42     9    11   ar
    43    26    43    1
    44    26    25   am
    45    43    45    1
    46    25     4    2
    47    25    21    1
    48    22    21   ar
    49    22    23   ar
    50    24    23   ar
    51    24    12   ar
    52    11    12   ar
    53    11     1    1
    54    21    19   ar
    55    23    17   ar
    56    12    13   ar
    57    19    20    1
    58    19    18   ar
    59    17    18   ar
    60    17    15   ar
    61    13    14    1
    62    13    15   ar
    63    18     2    1
    64    15    16    1
