@<TRIPOS>MOLECULE
C42 H57 I3 N3 O3, Cl, 2(F6 P), C H4 O
 129 128 0 0 0
SMALL
GASTEIGER

@<TRIPOS>ATOM
      1 I           7.4181    2.3348   23.0488 I       1  LIG1       -0.0466
      2 I           4.6307    3.3399   12.0867 I       1  LIG1       -0.0466
      3 I           7.0853    6.4306   24.8473 I       1  LIG1       -0.0466
      4 CL          4.0983   16.6826   13.2933 Cl      2  LIG2        0.0000
      5 P           6.1122   17.7365    7.7221 P.3     3  LIG3        0.6235
      6 P           1.9715   11.0728   22.6315 P.3     4  LIG4        0.6235
      7 O           3.3158    4.9128   21.6473 O.3     1  LIG1       -0.4911
      8 O           3.3635    3.8723   16.9810 O.3     1  LIG1       -0.4911
      9 F           7.0959   18.7433    8.4921 F       3  LIG3       -0.1039
     10 O           3.4763    8.4430   18.4518 O.3     1  LIG1       -0.4911
     11 F           5.1318   18.9448    7.3855 F       3  LIG3       -0.1039
     12 F           5.1512   16.7300    6.9532 F       3  LIG3       -0.1039
     13 F           7.1055   16.5343    8.0827 F       3  LIG3       -0.1039
     14 F           6.9173   18.0060    6.3724 F       3  LIG3       -0.1039
     15 F           2.3991   12.5866   22.7100 F       4  LIG4       -0.1039
     16 F           5.3260   17.4741    9.0824 F       3  LIG3       -0.1039
     17 N           4.6653    2.4056   19.7727 N.pl3   1  LIG1       -0.3076
     18 N           4.6068    5.9414   15.4950 N.pl3   1  LIG1       -0.3076
     19 N           4.6825    8.0016   21.6573 N.pl3   1  LIG1       -0.3076
     20 C           3.2795    4.3889   19.3028 C.ar    1  LIG1        0.0542
     21 O           3.5766   14.2337   15.0582 O.3     2  LIG2       -0.3982
     22 H           3.6531   14.9240   14.6217 H       2  LIG2        0.2090
     23 F           0.4832   11.5416   22.4162 F       4  LIG4       -0.1039
     24 C           3.3242    6.6893   20.0464 C.ar    1  LIG1        0.0542
     25 C           3.3938    7.0969   18.7176 C.ar    1  LIG1        0.1368
     26 C           3.2845    5.3327   20.3326 C.ar    1  LIG1        0.1368
     27 C           3.3297    4.8219   17.9794 C.ar    1  LIG1        0.1368
     28 C           3.2670    2.9170   19.6115 C.3     1  LIG1        0.0482
     29 H           2.7676    2.7598   20.4277 H       1  LIG1        0.0519
     30 H           2.8273    2.4376   18.8916 H       1  LIG1        0.0519
     31 C           3.4180    6.1832   17.6590 C.ar    1  LIG1        0.0542
     32 C           4.2516    5.2553   14.3886 C.2     1  LIG1        0.0063
     33 H           3.3777    5.2887   14.0724 H       1  LIG1        0.0791
     34 F           1.5775    9.5501   22.6660 F       4  LIG4       -0.1039
     35 C           6.5657    2.1134   21.1594 C.2     1  LIG1        0.0127
     36 C           2.2204    2.5328   15.3577 C.3     1  LIG1       -0.0186
     37 H           2.4263    1.7048   15.8180 H       1  LIG1        0.0298
     38 H           2.9565    2.7366   14.7594 H       1  LIG1        0.0298
     39 C           5.2097    4.5009   13.7299 C.2     1  LIG1        0.0127
     40 C           0.9326    2.3617   14.5450 C.3     1  LIG1       -0.0500
     41 H           0.1953    2.2106   15.1577 H       1  LIG1        0.0266
     42 H           0.7529    3.1869   14.0674 H       1  LIG1        0.0266
     43 C           2.0671    3.6504   16.3685 C.3     1  LIG1        0.0896
     44 H           1.7611    4.4585   15.9295 H       1  LIG1        0.0696
     45 H           1.4162    3.4016   17.0439 H       1  LIG1        0.0696
     46 C           3.3184    7.6991   21.1564 C.3     1  LIG1        0.0482
     47 H           2.9092    8.5178   20.8365 H       1  LIG1        0.0519
     48 H           2.7790    7.3623   21.8880 H       1  LIG1        0.0519
     49 C           0.9836    1.2160   13.5458 C.3     1  LIG1       -0.0532
     50 H           1.7514    1.3327   12.9640 H       1  LIG1        0.0265
     51 H           1.0964    0.3792   14.0233 H       1  LIG1        0.0265
     52 F           3.4540   10.6255   22.8778 F       4  LIG4       -0.1039
     53 C           5.2732    2.5539   20.9571 C.2     1  LIG1        0.0063
     54 H           4.8150    2.9619   21.6565 H       1  LIG1        0.0791
     55 C           6.4125    7.5562   23.1982 C.2     1  LIG1        0.0127
     56 C           5.3056    1.8533   18.7209 C.2     1  LIG1       -0.0067
     57 H           4.8715    1.7686   17.9034 H       1  LIG1        0.0780
     58 C           5.1781    7.2750   22.6714 C.2     1  LIG1        0.0063
     59 H           4.6780    6.5738   23.0219 H       1  LIG1        0.0791
     60 F           2.3553   10.9957   21.1374 F       4  LIG4       -0.1039
     61 C           3.5727    6.6869   16.2501 C.3     1  LIG1        0.0482
     62 H           2.7230    6.6069   15.7881 H       1  LIG1        0.0519
     63 H           3.8115    7.6264   16.2727 H       1  LIG1        0.0519
     64 C           2.0037    4.7539   22.2940 C.3     1  LIG1        0.0896
     65 H           1.5802    3.9350   21.9945 H       1  LIG1        0.0696
     66 H           1.4262    5.5001   22.0637 H       1  LIG1        0.0696
     67 C           7.2515    1.5370   20.0839 C.3     1  LIG1        0.0213
     68 H           8.1275    1.2423   20.1862 H       1  LIG1        0.0406
     69 F           1.6351   11.1175   24.1892 F       4  LIG4       -0.1039
     70 C           2.2158    9.0299   18.0666 C.3     1  LIG1        0.0896
     71 H           1.5791    8.9603   18.7959 H       1  LIG1        0.0696
     72 H           1.8521    8.5642   17.2972 H       1  LIG1        0.0696
     73 C           3.1191    3.5824   24.2516 C.3     1  LIG1       -0.0500
     74 H           2.7080    2.7382   24.0112 H       1  LIG1        0.0266
     75 H           3.9682    3.6409   23.7874 H       1  LIG1        0.0266
     76 C           6.6069    1.4128   18.8648 C.2     1  LIG1       -0.0612
     77 H           7.0503    1.0336   18.1419 H       1  LIG1        0.0591
     78 C           5.8554    5.9301   15.9623 C.2     1  LIG1       -0.0067
     79 H           6.0680    6.4159   16.7271 H       1  LIG1        0.0780
     80 C           5.3997    8.9901   21.1021 C.2     1  LIG1       -0.0067
     81 H           5.0558    9.4743   20.3867 H       1  LIG1        0.0780
     82 C          -0.2739    1.1434   12.7014 C.3     1  LIG1       -0.0559
     83 H          -0.3612    1.9624   12.1908 H       1  LIG1        0.0263
     84 H          -1.0446    1.0739   13.2867 H       1  LIG1        0.0263
     85 C           2.2272    4.7118   23.7819 C.3     1  LIG1       -0.0186
     86 H           1.3664    4.6298   24.2213 H       1  LIG1        0.0298
     87 H           2.6198    5.5533   24.0601 H       1  LIG1        0.0298
     88 C           3.3776    3.5918   25.7395 C.3     1  LIG1       -0.0532
     89 H           2.5293    3.6477   26.2068 H       1  LIG1        0.0265
     90 H           3.8936    4.3804   25.9658 H       1  LIG1        0.0265
     91 C           7.1507    8.5848   22.6660 C.3     1  LIG1        0.0213
     92 H           7.9812    8.7972   23.0245 H       1  LIG1        0.0406
     93 C           2.4643   10.4779   17.7299 C.3     1  LIG1       -0.0186
     94 H           3.2319   10.5340   17.1390 H       1  LIG1        0.0298
     95 H           2.6857   10.9552   18.5448 H       1  LIG1        0.0298
     96 C          -0.2705   -0.0515   11.7348 C.3     1  LIG1       -0.0653
     97 H           0.4450    0.0505   11.1037 H       1  LIG1        0.0230
     98 H          -1.1078   -0.0876   11.2682 H       1  LIG1        0.0230
     99 H          -0.1454   -0.8639   12.2319 H       1  LIG1        0.0230
    100 C           6.5039    4.4822   14.1948 C.3     1  LIG1        0.0213
    101 H           7.1509    3.9823   13.7501 H       1  LIG1        0.0406
    102 C           6.8396    5.1991   15.3134 C.2     1  LIG1       -0.0612
    103 H           7.7126    5.1958   15.6331 H       1  LIG1        0.0591
    104 C           6.6637    9.2900   21.6098 C.2     1  LIG1       -0.0612
    105 H           7.1717    9.9684   21.2272 H       1  LIG1        0.0591
    106 C           4.1365    2.3383   26.2283 C.3     1  LIG1       -0.0559
    107 H           3.6008    1.5508   26.0430 H       1  LIG1        0.0263
    108 H           4.9659    2.2564   25.7313 H       1  LIG1        0.0263
    109 C           3.7162   13.1302   14.2138 C.3     2  LIG2        0.0330
    110 H           3.7851   12.3310   14.7402 H       2  LIG2        0.0521
    111 H           4.5095   13.2330   13.6822 H       2  LIG2        0.0521
    112 H           2.9511   13.0694   13.6371 H       2  LIG2        0.0521
    113 C           1.2754   11.1785   17.0565 C.3     1  LIG1       -0.0500
    114 H           1.6102   11.9732   16.6132 H       1  LIG1        0.0266
    115 H           0.9331   10.5879   16.3686 H       1  LIG1        0.0266
    116 C           4.4457    2.3899   27.6999 C.3     1  LIG1       -0.0653
    117 H           4.8972    3.2128   27.9035 H       1  LIG1        0.0230
    118 H           5.0092    1.6494   27.9353 H       1  LIG1        0.0230
    119 H           3.6281    2.3419   28.2009 H       1  LIG1        0.0230
    120 C           0.1692   11.5721   17.8901 C.3     1  LIG1       -0.0532
    121 H          -0.3775   12.1630   17.3492 H       1  LIG1        0.0265
    122 H           0.5465   12.1210   18.5960 H       1  LIG1        0.0265
    123 C          -1.9223   10.2202   17.6756 C.3     1  LIG1       -0.0653
    124 H          -2.1190   10.9323   17.0634 H       1  LIG1        0.0230
    125 H          -2.6945   10.0357   18.2134 H       1  LIG1        0.0230
    126 H          -1.6764    9.4333   17.1848 H       1  LIG1        0.0230
    127 C          -0.7822   10.6278   18.5634 C.3     1  LIG1       -0.0559
    128 H          -1.1386   11.0530   19.3603 H       1  LIG1        0.0263
    129 H          -0.2980    9.8356   18.8420 H       1  LIG1        0.0263
@<TRIPOS>BOND
     1    14     5    1
     2    12     5    1
     3    11     5    1
     4     5    13    1
     5     5     9    1
     6     5    16    1
     7    97    96    1
     8    98    96    1
     9    96    99    1
    10    96    82    1
    11     2    39    1
    12    83    82    1
    13    82    84    1
    14    82    49    1
    15    50    49    1
    16    49    51    1
    17    49    40    1
    18   112   109    1
    19   111   109    1
    20    39   100    1
    21    39    32    2
    22   101   100    1
    23    42    40    1
    24    33    32    1
    25   100   102    1
    26   109   110    1
    27   109    21    1
    28    32    18    1
    29    40    41    1
    30    40    36    1
    31    22    21    1
    32    38    36    1
    33   102   103    1
    34   102    78    2
    35    36    37    1
    36    36    43    1
    37    18    78    1
    38    18    61    1
    39    62    61    1
    40    44    43    1
    41    78    79    1
    42    61    63    1
    43    61    31    1
    44    43     8    1
    45    43    45    1
    46   115   113    1
    47   114   113    1
    48     8    27    1
    49   113    93    1
    50   113   120    1
    51   124   123    1
    52    94    93    1
    53   126   123    1
    54    72    70    1
    55   121   120    1
    56    31    27   ar
    57    31    25   ar
    58   123   125    1
    59   123   127    1
    60    93    70    1
    61    93    95    1
    62   120   127    1
    63   120   122    1
    64    57    56    1
    65    27    20   ar
    66    70    10    1
    67    70    71    1
    68    77    76    1
    69    10    25    1
    70   127   129    1
    71   127   128    1
    72    25    24   ar
    73    56    76    2
    74    56    17    1
    75    76    67    1
    76    30    28    1
    77    20    28    1
    78    20    26   ar
    79    28    17    1
    80    28    29    1
    81    17    53    1
    82    24    26   ar
    83    24    46    1
    84    67    68    1
    85    67    35    1
    86    26     7    1
    87    81    80    1
    88    47    46    1
    89    53    35    2
    90    53    54    1
    91    80   104    2
    92    80    19    1
    93    60     6    1
    94    46    19    1
    95    46    48    1
    96    35     1    1
    97   105   104    1
    98   104    91    1
    99     7    64    1
   100    19    58    1
   101    65    64    1
   102    66    64    1
   103    64    85    1
   104    23     6    1
   105     6    34    1
   106     6    15    1
   107     6    52    1
   108     6    69    1
   109    91    92    1
   110    91    55    1
   111    58    59    1
   112    58    55    2
   113    55     3    1
   114    85    87    1
   115    85    86    1
   116    85    73    1
   117    75    73    1
   118    74    73    1
   119    73    88    1
   120   108   106    1
   121    88    90    1
   122    88    89    1
   123    88   106    1
   124   107   106    1
   125   106   116    1
   126   116   117    1
   127   116   118    1
   128   116   119    1
