@<TRIPOS>MOLECULE
Pterostilbene
 70 72 0 0 0
SMALL
GASTEIGER

@<TRIPOS>ATOM
      1 O          -1.4598    4.1181   27.4361 O.3     1  LIG1       -0.5068
      2 H          -0.7391    4.5469   27.2201 H       1  LIG1        0.2921
      3 O          -4.7671    4.0445   37.8110 O.3     1  LIG1       -0.4950
      4 O          -0.5827    6.2642   38.3889 O.3     1  LIG1       -0.4950
      5 C          -1.6583    4.2120   28.7885 C.ar    1  LIG1        0.1169
      6 C          -0.9060    5.0412   29.6009 C.ar    1  LIG1       -0.0196
      7 H          -0.2266    5.5593   29.2334 H       1  LIG1        0.0654
      8 C          -1.1620    5.1007   30.9565 C.ar    1  LIG1       -0.0511
      9 H          -0.6477    5.6611   31.4916 H       1  LIG1        0.0625
     10 C          -2.1743    4.3401   31.5426 C.ar    1  LIG1       -0.0248
     11 C          -2.9104    3.5101   30.7022 C.ar    1  LIG1       -0.0511
     12 H          -3.5862    2.9841   31.0649 H       1  LIG1        0.0625
     13 C          -2.6646    3.4460   29.3420 C.ar    1  LIG1       -0.0196
     14 H          -3.1761    2.8880   28.8018 H       1  LIG1        0.0654
     15 C          -2.4991    4.3874   32.9787 C.2     1  LIG1       -0.0540
     16 H          -3.2702    3.9378   33.2399 H       1  LIG1        0.0624
     17 C          -1.8262    4.9901   33.9357 C.2     1  LIG1       -0.0538
     18 H          -1.0535    5.4399   33.6796 H       1  LIG1        0.0624
     19 C          -2.1660    5.0298   35.3697 C.ar    1  LIG1       -0.0181
     20 C          -3.3865    4.5263   35.8627 C.ar    1  LIG1       -0.0126
     21 H          -4.0184    4.1714   35.2798 H       1  LIG1        0.0660
     22 C          -3.6323    4.5652   37.2154 C.ar    1  LIG1        0.1241
     23 C          -2.7198    5.1274   38.1090 C.ar    1  LIG1        0.0218
     24 H          -2.9016    5.1501   39.0208 H       1  LIG1        0.0691
     25 C          -1.5413    5.6500   37.6132 C.ar    1  LIG1        0.1241
     26 C          -1.2586    5.5860   36.2555 C.ar    1  LIG1       -0.0126
     27 H          -0.4512    5.9206   35.9377 H       1  LIG1        0.0660
     28 C          -5.9084    3.7992   36.9727 C.3     1  LIG1        0.0788
     29 H          -6.1029    4.5862   36.4588 H       1  LIG1        0.0660
     30 H          -6.6659    3.5789   37.5199 H       1  LIG1        0.0660
     31 H          -5.7186    3.0685   36.3798 H       1  LIG1        0.0660
     32 C          -0.9306    6.5915   39.7281 C.3     1  LIG1        0.0788
     33 H          -1.7446    7.1003   39.7322 H       1  LIG1        0.0660
     34 H          -0.2267    7.1105   40.1240 H       1  LIG1        0.0660
     35 H          -1.0554    5.7843   40.2328 H       1  LIG1        0.0660
     36 O           8.1830    1.5090   19.1757 O.3     2  LIG2       -0.5068
     37 H           7.6996    1.0299   18.5809 H       2  LIG2        0.2921
     38 O           0.7855    5.2480   26.2647 O.3     2  LIG2       -0.4950
     39 O           4.1440    4.3111   29.3354 O.3     2  LIG2       -0.4950
     40 C           7.3669    1.9301   20.1962 C.ar    2  LIG2        0.1169
     41 C           6.0158    1.6761   20.2173 C.ar    2  LIG2       -0.0196
     42 H           5.6232    1.1958   19.5245 H       2  LIG2        0.0654
     43 C           5.2401    2.1323   21.2658 C.ar    2  LIG2       -0.0511
     44 H           4.3283    1.9492   21.2646 H       2  LIG2        0.0625
     45 C           5.7776    2.8510   22.3161 C.ar    2  LIG2       -0.0248
     46 C           7.1475    3.0989   22.2769 C.ar    2  LIG2       -0.0511
     47 H           7.5401    3.5810   22.9687 H       2  LIG2        0.0625
     48 C           7.9422    2.6465   21.2341 C.ar    2  LIG2       -0.0196
     49 H           8.8555    2.8220   21.2314 H       2  LIG2        0.0654
     50 C           4.8790    3.3156   23.3976 C.2     2  LIG2       -0.0540
     51 H           3.9691    3.3023   23.2063 H       2  LIG2        0.0624
     52 C           5.2096    3.7420   24.5888 C.2     2  LIG2       -0.0538
     53 H           6.1173    3.8179   24.7766 H       2  LIG2        0.0624
     54 C           4.2632    4.1143   25.6625 C.ar    2  LIG2       -0.0181
     55 C           2.9558    4.5255   25.3728 C.ar    2  LIG2       -0.0126
     56 H           2.6684    4.5923   24.4906 H       2  LIG2        0.0660
     57 C           2.0924    4.8345   26.4193 C.ar    2  LIG2        0.1241
     58 C           2.5189    4.7353   27.7292 C.ar    2  LIG2        0.0218
     59 H           1.9348    4.9360   28.4243 H       2  LIG2        0.0691
     60 C           3.8181    4.3371   28.0086 C.ar    2  LIG2        0.1241
     61 C           4.6906    4.0304   26.9798 C.ar    2  LIG2       -0.0126
     62 H           5.5623    3.7687   27.1711 H       2  LIG2        0.0660
     63 C           0.3136    5.5432   24.9499 C.3     2  LIG2        0.0788
     64 H           0.8712    6.2163   24.5533 H       2  LIG2        0.0660
     65 H          -0.5900    5.8636   24.9983 H       2  LIG2        0.0660
     66 H           0.3424    4.7472   24.4135 H       2  LIG2        0.0660
     67 C           5.3277    3.6100   29.7171 C.3     2  LIG2        0.0788
     68 H           5.2894    2.7114   29.3826 H       2  LIG2        0.0660
     69 H           5.3942    3.5928   30.6747 H       2  LIG2        0.0660
     70 H           6.0953    4.0556   29.3512 H       2  LIG2        0.0660
@<TRIPOS>BOND
     1    37    36    1
     2    36    40    1
     3    42    41    1
     4    40    41   ar
     5    40    48   ar
     6    41    43   ar
     7    49    48    1
     8    48    46   ar
     9    44    43    1
    10    43    45   ar
    11    46    45   ar
    12    46    47    1
    13    45    50    1
    14    51    50    1
    15    50    52    2
    16    66    63    1
    17    56    55    1
    18    64    63    1
    19    52    53    1
    20    52    54    1
    21    63    65    1
    22    63    38    1
    23    55    54   ar
    24    55    57   ar
    25    54    61   ar
    26    38    57    1
    27    57    58   ar
    28    61    62    1
    29    61    60   ar
    30     2     1    1
    31     1     5    1
    32    58    60   ar
    33    58    59    1
    34    60    39    1
    35     5    13   ar
    36     5     6   ar
    37    14    13    1
    38     7     6    1
    39    39    67    1
    40    13    11   ar
    41    70    67    1
    42    68    67    1
    43     6     8   ar
    44    67    69    1
    45    11    12    1
    46    11    10   ar
    47     8     9    1
    48     8    10   ar
    49    10    15    1
    50    15    16    1
    51    15    17    2
    52    18    17    1
    53    17    19    1
    54    21    20    1
    55    19    20   ar
    56    19    26   ar
    57    20    22   ar
    58    27    26    1
    59    26    25   ar
    60    31    28    1
    61    29    28    1
    62    28    30    1
    63    28     3    1
    64    22     3    1
    65    22    23   ar
    66    25    23   ar
    67    25     4    1
    68    23    24    1
    69     4    32    1
    70    32    33    1
    71    32    34    1
    72    32    35    1
