@<TRIPOS>MOLECULE
7240585.cif
 84 88 0 0 0
SMALL
GASTEIGER

@<TRIPOS>ATOM
      1 S           5.8967    4.2344   33.9845 S.3     1  LIG1       -0.0881
      2 O           7.8166    9.6452   35.3225 O.3     1  LIG1       -0.4808
      3 O           9.9197   12.3376   34.5019 O.3     1  LIG1       -0.4783
      4 H          10.2531   13.1433   35.0476 H       1  LIG1        0.2952
      5 O           8.7773   11.8952   36.3573 O.2     1  LIG1       -0.2472
      6 O           1.1860    4.7794   30.3766 O.3     1  LIG1       -0.4547
      7 O          -3.8542   -4.4742   27.5136 O.2     1  LIG1       -0.2968
      8 N           4.6825    0.9325   33.1194 N.1     1  LIG1       -0.1908
      9 N           2.0030    8.1072   31.0729 N.1     1  LIG1       -0.1907
     10 C           4.5227    4.4645   32.8799 C.ar    1  LIG1        0.0315
     11 C           3.8857    3.3084   32.3988 C.ar    1  LIG1        0.0690
     12 C           2.7909    3.3690   31.5459 C.ar    1  LIG1        0.0004
     13 H           2.3920    2.5723   31.2177 H       1  LIG1        0.0668
     14 C           2.2912    4.6010   31.1831 C.ar    1  LIG1        0.1470
     15 C           2.9112    5.7555   31.6712 C.ar    1  LIG1        0.0950
     16 C           4.0092    5.6844   32.5161 C.ar    1  LIG1       -0.0258
     17 H           4.4077    6.4822   32.8433 H       1  LIG1        0.0643
     18 C           4.3507    2.0006   32.8081 C.1     1  LIG1        0.1004
     19 C           2.3719    7.0553   31.3296 C.1     1  LIG1        0.1029
     20 C           6.4409    5.8935   34.3058 C.ar    1  LIG1        0.0130
     21 C           7.3419    6.5168   33.4701 C.ar    1  LIG1       -0.0445
     22 H           7.6424    6.0705   32.6874 H       1  LIG1        0.0630
     23 C           7.8109    7.7778   33.7571 C.ar    1  LIG1       -0.0189
     24 H           8.4122    8.2062   33.1591 H       1  LIG1        0.0654
     25 C           7.4064    8.4277   34.9193 C.ar    1  LIG1        0.1214
     26 C           6.5079    7.7770   35.7712 C.ar    1  LIG1       -0.0189
     27 H           6.2398    8.2024   36.5770 H       1  LIG1        0.0654
     28 C           6.0081    6.5434   35.4680 C.ar    1  LIG1       -0.0445
     29 H           5.3726    6.1298   36.0404 H       1  LIG1        0.0630
     30 C           8.7466   10.3266   34.5150 C.3     1  LIG1        0.1857
     31 H           8.3380   10.5520   33.6419 H       1  LIG1        0.0815
     32 H           9.5383    9.7552   34.3518 H       1  LIG1        0.0815
     33 C           9.1608   11.5989   35.2427 C.2     1  LIG1        0.3427
     34 C           0.5562    3.5999   29.9461 C.ar    1  LIG1        0.1288
     35 C          -0.6087    3.2083   30.5585 C.ar    1  LIG1       -0.0190
     36 H          -1.0084    3.7477   31.2313 H       1  LIG1        0.0654
     37 C          -1.1989    1.9893   30.1684 C.ar    1  LIG1       -0.0546
     38 H          -2.0131    1.7176   30.5759 H       1  LIG1        0.0622
     39 C          -0.6241    1.1771   29.2063 C.ar    1  LIG1       -0.0406
     40 C          -1.2094   -0.2228   28.9254 C.3     1  LIG1       -0.0124
     41 H          -0.8710   -0.8125   29.6581 H       1  LIG1        0.0352
     42 C          -2.7417   -0.3028   28.9971 C.3     1  LIG1       -0.0450
     43 H          -3.1331    0.2949   28.3116 H       1  LIG1        0.0271
     44 H          -3.0443    0.0134   29.8855 H       1  LIG1        0.0271
     45 C          -3.2519   -1.7527   28.7667 C.3     1  LIG1       -0.0401
     46 H          -2.9791   -2.3237   29.5278 H       1  LIG1        0.0275
     47 H          -4.2411   -1.7517   28.7227 H       1  LIG1        0.0275
     48 C          -2.6892   -2.3219   27.4802 C.3     1  LIG1        0.0293
     49 C          -2.8902   -3.8130   27.2246 C.2     1  LIG1        0.1395
     50 C          -1.6381   -4.3475   26.5030 C.3     1  LIG1        0.0067
     51 H          -1.2300   -5.0871   27.0189 H       1  LIG1        0.0342
     52 H          -1.8736   -4.6812   25.6015 H       1  LIG1        0.0342
     53 C          -0.6685   -3.1647   26.4019 C.3     1  LIG1       -0.0424
     54 H           0.2671   -3.4510   26.5517 H       1  LIG1        0.0272
     55 H          -0.7360   -2.7169   25.5213 H       1  LIG1        0.0272
     56 C          -1.1617   -2.2605   27.5267 C.3     1  LIG1       -0.0252
     57 H          -0.8889   -2.7012   28.3814 H       1  LIG1        0.0313
     58 C          -0.6572   -0.8267   27.6056 C.3     1  LIG1       -0.0302
     59 H          -1.0416   -0.3135   26.8381 H       1  LIG1        0.0310
     60 C           0.8550   -0.6951   27.5591 C.3     1  LIG1       -0.0454
     61 H           1.2059   -1.1547   26.7556 H       1  LIG1        0.0271
     62 H           1.2520   -1.1248   28.3584 H       1  LIG1        0.0271
     63 C           1.2465    0.7839   27.5207 C.3     1  LIG1       -0.0270
     64 H           2.2259    0.8623   27.6431 H       1  LIG1        0.0313
     65 H           1.0219    1.1543   26.6306 H       1  LIG1        0.0313
     66 C           0.5522    1.5937   28.5798 C.ar    1  LIG1       -0.0404
     67 C           1.1246    2.8240   28.9375 C.ar    1  LIG1       -0.0159
     68 H           1.9041    3.1305   28.4887 H       1  LIG1        0.0657
     69 C          -3.3141   -1.6575   26.2372 C.3     1  LIG1       -0.0526
     70 H          -2.9444   -2.0665   25.4273 H       1  LIG1        0.0239
     71 H          -3.1097   -0.6987   26.2413 H       1  LIG1        0.0239
     72 H          -4.2860   -1.7837   26.2528 H       1  LIG1        0.0239
     73 O          10.7149   14.3963   35.6671 O.2     2  LIG2       -0.2793
     74 N          10.1021   16.0715   37.0547 N.am    2  LIG2       -0.3101
     75 C           9.9237   14.8726   36.5201 C.2     2  LIG2        0.2020
     76 H           9.1735   14.3556   36.7903 H       2  LIG2        0.1253
     77 C          11.2146   16.9257   36.6716 C.3     2  LIG2        0.0026
     78 H          11.6191   16.5847   35.8466 H       2  LIG2        0.0428
     79 H          11.8853   16.9291   37.3866 H       2  LIG2        0.0428
     80 H          10.8905   17.8384   36.5237 H       2  LIG2        0.0428
     81 C           9.1882   16.5478   38.0774 C.3     2  LIG2        0.0026
     82 H           8.6984   17.3271   37.7405 H       2  LIG2        0.0428
     83 H           9.6960   16.8022   38.8764 H       2  LIG2        0.0428
     84 H           8.5541   15.8369   38.3060 H       2  LIG2        0.0428
@<TRIPOS>BOND
     1    70    69    1
     2    55    53    1
     3    52    50    1
     4    69    71    1
     5    69    72    1
     6    69    48    1
     7    53    50    1
     8    53    54    1
     9    53    56    1
    10    50    51    1
    11    50    49    1
    12    65    63    1
    13    61    60    1
    14    59    58    1
    15    49    48    1
    16    49     7    2
    17    48    56    1
    18    48    45    1
    19    63    60    1
    20    63    64    1
    21    63    66    1
    22    56    58    1
    23    56    57    1
    24    60    58    1
    25    60    62    1
    26    58    40    1
    27    43    42    1
    28    68    67    1
    29    66    67   ar
    30    66    39   ar
    31    47    45    1
    32    45    42    1
    33    45    46    1
    34    40    42    1
    35    40    39    1
    36    40    41    1
    37    67    34   ar
    38    42    44    1
    39    39    37   ar
    40    34     6    1
    41    34    35   ar
    42    37    35   ar
    43    37    38    1
    44     6    14    1
    45    35    36    1
    46     9    19    3
    47    14    12   ar
    48    14    15   ar
    49    13    12    1
    50    19    15    1
    51    12    11   ar
    52    15    16   ar
    53    11    18    1
    54    11    10   ar
    55    16    17    1
    56    16    10   ar
    57    22    21    1
    58    18     8    3
    59    10     1    1
    60    24    23    1
    61    21    23   ar
    62    21    20   ar
    63    31    30    1
    64    23    25   ar
    65     1    20    1
    66    20    28   ar
    67    32    30    1
    68     3     4    1
    69     3    33    1
    70    30    33    1
    71    30     2    1
    72    25     2    1
    73    25    26   ar
    74    33     5    2
    75    28    26   ar
    76    28    29    1
    77    73    75    2
    78    26    27    1
    79    78    77    1
    80    75    76    1
    81    75    74   am
    82    80    77    1
    83    77    74    1
    84    77    79    1
    85    74    81    1
    86    82    81    1
    87    81    84    1
    88    81    83    1
