@<TRIPOS>MOLECULE
4-Chloropiperidine_monohydrate
 20 19 0 0 0
SMALL
GASTEIGER

@<TRIPOS>ATOM
      1 CL          3.4449   11.6309    4.9023 Cl      1  LIG1       -0.1217
      2 N           0.9359    8.3807    2.8243 N.3     1  LIG1       -0.3159
      3 H           1.6227    8.0861    2.3770 H       1  LIG1        0.1219
      4 C           0.6628    9.7845    2.4917 C.3     1  LIG1       -0.0028
      5 H          -0.1860   10.0529    2.9245 H       1  LIG1        0.0424
      6 H           0.5365    9.8595    1.5129 H       1  LIG1        0.0424
      7 C           1.7673   10.7625    2.9224 C.3     1  LIG1       -0.0241
      8 H           2.5917   10.5898    2.4024 H       1  LIG1        0.0292
      9 H           1.4792   11.6940    2.7470 H       1  LIG1        0.0292
     10 C           2.0442   10.5786    4.4052 C.3     1  LIG1        0.0363
     11 H           1.2342   10.8595    4.9195 H       1  LIG1        0.0466
     12 C           2.3555    9.1341    4.7441 C.3     1  LIG1       -0.0241
     13 H           2.4687    9.0377    5.7229 H       1  LIG1        0.0292
     14 H           3.2006    8.8621    4.3066 H       1  LIG1        0.0292
     15 C           1.2101    8.2326    4.2635 C.3     1  LIG1       -0.0028
     16 H           1.4407    7.2897    4.4529 H       1  LIG1        0.0424
     17 H           0.3901    8.4525    4.7731 H       1  LIG1        0.0424
     18 O           3.8336    6.9889    2.2348 O.3     2  HOH2       -0.4105
     19 H           3.9524    6.6434    1.5051 H       0  HOH0        0.2052
     20 H           4.5370    7.3813    2.3873 H       0  HOH0        0.2052
@<TRIPOS>BOND
     1    19    18    1
     2     6     4    1
     3    18    20    1
     4     3     2    1
     5     8     7    1
     6     4     2    1
     7     4     7    1
     8     4     5    1
     9     9     7    1
    10     2    15    1
    11     7    10    1
    12    15    16    1
    13    15    12    1
    14    15    17    1
    15    14    12    1
    16    10    12    1
    17    10     1    1
    18    10    11    1
    19    12    13    1
