@<TRIPOS>MOLECULE
C19 H21 B O3
 44 46 0 0 0
SMALL
GASTEIGER

@<TRIPOS>ATOM
      1 O           1.8620    7.2393    3.7950 O.3     1  LIG1        0.0000
      2 O           2.5841    9.3911    3.9851 O.3     1  LIG1        0.0000
      3 O           0.9548    8.2762    1.1542 O.2     1  LIG1        0.0000
      4 C           4.9689    8.2581    2.2346 C.ar    1  LIG1        0.0000
      5 H           5.2770    8.5482    3.0636 H       1  LIG1        0.0000
      6 C           1.1609    6.6769   -0.5566 C.ar    1  LIG1        0.0000
      7 C           1.7083    7.5571    0.5172 C.2     1  LIG1        0.0000
      8 C           3.1726    7.5989    0.7917 C.ar    1  LIG1        0.0000
      9 C           4.0868    7.3846   -0.2326 C.ar    1  LIG1        0.0000
     10 H           3.7932    7.0789   -1.0605 H       1  LIG1        0.0000
     11 C           3.6021    8.0325    2.0556 C.ar    1  LIG1        0.0000
     12 C           1.0489    7.8364    4.8530 C.3     1  LIG1        0.0000
     13 C           1.8882    9.0876    5.2362 C.3     1  LIG1        0.0000
     14 B           2.6195    8.2374    3.2618 B       1  LIG1        0.0000
     15 C           0.1177    7.1562   -1.3393 C.ar    1  LIG1        0.0000
     16 H          -0.1798    8.0310   -1.2325 H       1  LIG1        0.0000
     17 C           5.8752    8.0592    1.2055 C.ar    1  LIG1        0.0000
     18 H           6.7806    8.2190    1.3464 H       1  LIG1        0.0000
     19 C          -0.0660    5.0239   -2.4165 C.ar    1  LIG1        0.0000
     20 H          -0.4872    4.4658   -3.0304 H       1  LIG1        0.0000
     21 C           1.5997    5.3677   -0.7306 C.ar    1  LIG1        0.0000
     22 H           2.3163    5.0466   -0.2320 H       1  LIG1        0.0000
     23 C          -0.4792    6.3352   -2.2785 C.ar    1  LIG1        0.0000
     24 H          -1.1597    6.6665   -2.8191 H       1  LIG1        0.0000
     25 C           0.9680    4.5450   -1.6463 C.ar    1  LIG1        0.0000
     26 H           1.2449    3.6625   -1.7420 H       1  LIG1        0.0000
     27 C          -0.2994    8.1843    4.2372 C.3     1  LIG1        0.0000
     28 H          -0.1803    8.8662    3.5710 H       1  LIG1        0.0000
     29 H          -0.8909    8.5052    4.9216 H       1  LIG1        0.0000
     30 H          -0.6764    7.4016    3.8300 H       1  LIG1        0.0000
     31 C           5.4357    7.6250   -0.0226 C.ar    1  LIG1        0.0000
     32 H           6.0438    7.4923   -0.7126 H       1  LIG1        0.0000
     33 C           1.0920   10.3083    5.6343 C.3     1  LIG1        0.0000
     34 H           1.6912   11.0341    5.8206 H       1  LIG1        0.0000
     35 H           0.5735   10.1110    6.4192 H       1  LIG1        0.0000
     36 H           0.5045   10.5553    4.9154 H       1  LIG1        0.0000
     37 C           0.8708    6.8186    5.9593 C.3     1  LIG1        0.0000
     38 H           0.3561    6.0773    5.6321 H       1  LIG1        0.0000
     39 H           0.4121    7.2258    6.6988 H       1  LIG1        0.0000
     40 H           1.7311    6.5066    6.2493 H       1  LIG1        0.0000
     41 C           2.9623    8.7877    6.2732 C.3     1  LIG1        0.0000
     42 H           3.4278    7.9843    6.0277 H       1  LIG1        0.0000
     43 H           2.5525    8.6707    7.1338 H       1  LIG1        0.0000
     44 H           3.5835    9.5181    6.3115 H       1  LIG1        0.0000
@<TRIPOS>BOND
     1    20    19    1
     2    24    23    1
     3    19    23   ar
     4    19    25   ar
     5    23    15   ar
     6    26    25    1
     7    25    21   ar
     8    15    16    1
     9    15     6   ar
    10    10     9    1
    11    21     6   ar
    12    21    22    1
    13    32    31    1
    14     6     7    1
    15     9    31   ar
    16     9     8   ar
    17    31    17   ar
    18     7     8    1
    19     7     3    2
    20     8    11   ar
    21    17    18    1
    22    17     4   ar
    23    11     4   ar
    24    11    14    1
    25     4     5    1
    26    14     1    1
    27    14     2    1
    28    28    27    1
    29     1    12    1
    30    30    27    1
    31     2    13    1
    32    27    12    1
    33    27    29    1
    34    12    13    1
    35    12    37    1
    36    36    33    1
    37    13    33    1
    38    13    41    1
    39    38    37    1
    40    33    34    1
    41    33    35    1
    42    37    40    1
    43    37    39    1
    44    42    41    1
    45    41    44    1
    46    41    43    1
