@<TRIPOS>MOLECULE
1,2-diiodo-3,4,5,6-tetrafluorobenzene tetramethylammonium iodide cocrystal
 30 28 0 0 0
SMALL
GASTEIGER

@<TRIPOS>ATOM
      1 I           5.0560    9.5615    0.8040 I       1  LIG1       -0.0396
      2 I           5.8587   12.9936    1.9848 I       1  LIG1       -0.0396
      3 I           6.6319    7.2570   -1.4009 I       2  LIG2        0.0000
      4 F           3.4454   13.8897    3.7397 F       1  LIG1       -0.2013
      5 F           1.0825   12.7701    4.3633 F       1  LIG1       -0.1993
      6 F           0.4739   10.2670    3.4825 F       1  LIG1       -0.1993
      7 F           2.2170    8.8954    1.9838 F       1  LIG1       -0.2013
      8 N           0.4268   16.4910    5.5058 N.4     3  LIG3        0.2347
      9 C           3.7837   10.6920    2.0321 C.ar    1  LIG1        0.0674
     10 C           4.0903   11.9805    2.4756 C.ar    1  LIG1        0.0674
     11 C           3.1685   12.6597    3.2552 C.ar    1  LIG1        0.1755
     12 C           1.9491   12.0990    3.5913 C.ar    1  LIG1        0.1973
     13 C           1.6384   10.8313    3.1441 C.ar    1  LIG1        0.1973
     14 C           2.5582   10.1342    2.3755 C.ar    1  LIG1        0.1755
     15 C           1.6918   15.7948    5.3222 C.3     3  LIG3       -0.0421
     16 H           1.7240   15.4077    4.4223 H       3  LIG3        0.0778
     17 H           1.7710   15.0805    5.9881 H       3  LIG3        0.0778
     18 H           2.4318   16.4277    5.4321 H       3  LIG3        0.0778
     19 C           0.2711   17.6477    4.5637 C.3     3  LIG3       -0.0421
     20 H           0.3030   17.3235    3.6398 H       3  LIG3        0.0778
     21 H           0.9971   18.2889    4.7109 H       3  LIG3        0.0778
     22 H          -0.5903   18.0868    4.7263 H       3  LIG3        0.0778
     23 C          -0.6575   15.4804    5.2909 C.3     3  LIG3       -0.0421
     24 H          -0.6112   15.1406    4.3734 H       3  LIG3        0.0778
     25 H          -1.5303   15.9016    5.4398 H       3  LIG3        0.0778
     26 H          -0.5420   14.7385    5.9209 H       3  LIG3        0.0778
     27 C           0.3857   16.9841    6.9144 C.3     3  LIG3       -0.0421
     28 H           1.1041   17.6357    7.0534 H       3  LIG3        0.0778
     29 H           0.5049   16.2297    7.5280 H       3  LIG3        0.0778
     30 H          -0.4801   17.4108    7.0853 H       3  LIG3        0.0778
@<TRIPOS>BOND
     1     1     9    1
     2     7    14    1
     3     2    10    1
     4     9    14   ar
     5     9    10   ar
     6    14    13   ar
     7    10    11   ar
     8    13     6    1
     9    13    12   ar
    10    11    12   ar
    11    11     4    1
    12    12     5    1
    13    20    19    1
    14    24    23    1
    15    16    15    1
    16    19    21    1
    17    19    22    1
    18    19     8    1
    19    23    25    1
    20    23     8    1
    21    23    26    1
    22    15    18    1
    23    15     8    1
    24    15    17    1
    25     8    27    1
    26    27    28    1
    27    27    30    1
    28    27    29    1
