@<TRIPOS>MOLECULE
7241147.cif
 68 66 0 0 0
SMALL
GASTEIGER

@<TRIPOS>ATOM
      1 CL          6.9200    8.2896   11.2542 Cl      1  LIG1        0.0000
      2 F          -2.7915    3.3097    7.7488 F       2  LIG2       -0.2055
      3 F           0.1030    4.1417   16.4389 F       2  LIG2       -0.2055
      4 N           5.2349    7.8904   13.8692 N.4     2  LIG2        0.2286
      5 H           5.7351    8.3176   13.2401 H       2  LIG2        0.2002
      6 H           5.7301    7.7760   14.6242 H       2  LIG2        0.2002
      7 H           4.4988    8.3893   14.0605 H       2  LIG2        0.2002
      8 O           3.2069    7.8273   12.0696 O.2     2  LIG2       -0.2444
      9 O           3.5874    5.6589   11.5803 O.3     2  LIG2       -0.4568
     10 O           0.4262    8.6748   17.2310 O.3     3  LIG3       -0.3923
     11 H           1.0477    8.7970   16.6779 H       3  LIG3        0.2098
     12 O           6.4496    7.4591   16.3264 O.3     4  LIG4       -0.3923
     13 H           7.1757    7.7994   16.5773 H       4  LIG4        0.2098
     14 C           3.7818    6.7902   12.2517 C.2     2  LIG2        0.3559
     15 C           4.8129    6.5644   13.3484 C.3     2  LIG2        0.0715
     16 H           5.6055    6.0899   12.9676 H       2  LIG2        0.0965
     17 C           4.2072    5.7209   14.4705 C.3     2  LIG2       -0.0112
     18 H           4.8827    5.5670   15.1641 H       2  LIG2        0.0290
     19 H           3.9098    4.8597   14.1082 H       2  LIG2        0.0290
     20 H           3.4420    6.1944   14.8598 H       2  LIG2        0.0290
     21 C           2.4625    5.6081   10.6379 C.3     2  LIG2        0.1112
     22 H           1.8810    6.4130   10.7551 H       2  LIG2        0.0740
     23 C           3.0225    5.5741    9.2358 C.3     2  LIG2       -0.0268
     24 H           3.5658    6.3742    9.0826 H       2  LIG2        0.0265
     25 H           2.2856    5.5494    8.5903 H       2  LIG2        0.0265
     26 H           3.5791    4.7751    9.1249 H       2  LIG2        0.0265
     27 C           1.6857    4.3415   11.0179 C.3     2  LIG2        0.0460
     28 H           2.3097    3.5707   10.8875 H       2  LIG2        0.0433
     29 C           0.4985    4.1030   10.1028 C.ar    2  LIG2       -0.0363
     30 C           0.3265    2.8540    9.5108 C.ar    2  LIG2       -0.0552
     31 H           0.9770    2.1760    9.6542 H       2  LIG2        0.0621
     32 C          -0.7751    2.5802    8.7174 C.ar    2  LIG2       -0.0262
     33 H          -0.8898    1.7237    8.3231 H       2  LIG2        0.0646
     34 C          -1.6973    3.5743    8.5131 C.ar    2  LIG2        0.1234
     35 C          -1.5569    4.8327    9.0490 C.ar    2  LIG2       -0.0262
     36 H          -2.1983    5.5106    8.8709 H       2  LIG2        0.0646
     37 C          -0.4536    5.0911    9.8564 C.ar    2  LIG2       -0.0552
     38 H          -0.3481    5.9512   10.2444 H       2  LIG2        0.0621
     39 C           1.2770    4.3321   12.4915 C.ar    2  LIG2       -0.0363
     40 C           0.5425    5.3684   13.0615 C.ar    2  LIG2       -0.0552
     41 H           0.2983    6.1192   12.5335 H       2  LIG2        0.0621
     42 C           0.1612    5.3156   14.4040 C.ar    2  LIG2       -0.0262
     43 H          -0.3257    6.0288   14.7989 H       2  LIG2        0.0646
     44 C           0.5051    4.2146   15.1363 C.ar    2  LIG2        0.1234
     45 C           1.2354    3.1736   14.6258 C.ar    2  LIG2       -0.0262
     46 H           1.4697    2.4287   15.1667 H       2  LIG2        0.0646
     47 C           1.6234    3.2429   13.2867 C.ar    2  LIG2       -0.0552
     48 H           2.1327    2.5344   12.9120 H       2  LIG2        0.0621
     49 C           0.9737    8.2095   18.4703 C.3     3  LIG3        0.0496
     50 H           0.1952    7.9863   19.0570 H       3  LIG3        0.0588
     51 C           1.7223    6.9370   18.2610 C.3     3  LIG3       -0.0392
     52 H           1.1257    6.2685   17.8661 H       3  LIG3        0.0254
     53 H           2.0563    6.6092   19.1232 H       3  LIG3        0.0254
     54 H           2.4775    7.0980   17.6570 H       3  LIG3        0.0254
     55 C           1.7322    9.2623   19.1642 C.3     3  LIG3       -0.0392
     56 H           2.4816    9.5490   18.6018 H       3  LIG3        0.0254
     57 H           2.0754    8.9110   20.0124 H       3  LIG3        0.0254
     58 H           1.1440   10.0260   19.3402 H       3  LIG3        0.0254
     59 C           5.5074    7.4857   17.4109 C.3     4  LIG4        0.0496
     60 H           4.6068    7.2731   17.0298 H       4  LIG4        0.0588
     61 C           5.8398    6.4059   18.4253 C.3     4  LIG4       -0.0392
     62 H           5.9577    5.5494   17.9640 H       4  LIG4        0.0254
     63 H           5.1086    6.3296   19.0729 H       4  LIG4        0.0254
     64 H           6.6681    6.6409   18.8929 H       4  LIG4        0.0254
     65 C           5.4227    8.8557   18.0278 C.3     4  LIG4       -0.0392
     66 H           6.3092    9.1272   18.3451 H       4  LIG4        0.0254
     67 H           4.7979    8.8369   18.7818 H       4  LIG4        0.0254
     68 H           5.1053    9.4973   17.3580 H       4  LIG4        0.0254
@<TRIPOS>BOND
     1     2    34    1
     2    33    32    1
     3    34    32   ar
     4    34    35   ar
     5    25    23    1
     6    32    30   ar
     7    36    35    1
     8    35    37   ar
     9    24    23    1
    10    26    23    1
    11    23    21    1
    12    30    31    1
    13    30    29   ar
    14    37    29   ar
    15    37    38    1
    16    29    27    1
    17    21    22    1
    18    21    27    1
    19    21     9    1
    20    28    27    1
    21    27    39    1
    22     9    14    1
    23     8    14    2
    24    14    15    1
    25    39    40   ar
    26    39    47   ar
    27    41    40    1
    28    48    47    1
    29    16    15    1
    30    40    42   ar
    31     5     4    1
    32    47    45   ar
    33    15     4    1
    34    15    17    1
    35     4     7    1
    36     4     6    1
    37    19    17    1
    38    42    43    1
    39    42    44   ar
    40    17    20    1
    41    17    18    1
    42    45    44   ar
    43    45    46    1
    44    44     3    1
    45    12    13    1
    46    12    59    1
    47    11    10    1
    48    60    59    1
    49    10    49    1
    50    68    65    1
    51    59    65    1
    52    59    61    1
    53    54    51    1
    54    52    51    1
    55    62    61    1
    56    65    66    1
    57    65    67    1
    58    51    49    1
    59    51    53    1
    60    61    64    1
    61    61    63    1
    62    49    50    1
    63    49    55    1
    64    56    55    1
    65    55    58    1
    66    55    57    1
