@<TRIPOS>MOLECULE
7241142.cif
 22 24 0 0 0
SMALL
GASTEIGER

@<TRIPOS>ATOM
      1 N           1.4376    1.1224    8.1167 N.pl3   1  LIG1        0.0805
      2 N           3.4236    0.4874    6.9147 N.ar    1  LIG1       -0.0239
      3 N           4.4892    2.5092    6.6978 N.ar    1  LIG1       -0.0489
      4 N           3.6750    4.6940    8.7001 N.4     1  LIG1        0.0633
      5 N           1.8787    5.9999    8.1177 N.2     1  LIG1       -0.0571
      6 N           1.0257    3.6627    5.5261 N.ar    1  LIG1       -0.0455
      7 N          -0.7764    4.9336    4.8909 N.ar    1  LIG1       -0.0335
      8 N          -0.7424    6.5662    6.6098 N.pl3   1  LIG1       -0.3387
      9 H          -1.4464    6.9591    6.3108 H       1  LIG1        0.1439
     10 H          -0.3483    6.8652    7.3134 H       1  LIG1        0.1439
     11 O           0.8095    2.0777    8.5437 O.2     1  LIG1       -0.1245
     12 O           1.1183   -0.0572    8.1978 O.2     1  LIG1       -0.1245
     13 O           4.5417    1.1392    6.4349 O.2     1  LIG1       -0.2401
     14 O           4.7258    4.4722    9.3138 O.3     1  LIG1       -0.0769
     15 O           2.9838    5.9521    8.9434 O.2     1  LIG1       -0.2648
     16 O           0.0141    3.7969    4.6105 O.2     1  LIG1       -0.2402
     17 C           2.7040    1.4242    7.4502 C.ar    1  LIG1        0.2821
     18 C           3.3618    2.6957    7.3281 C.ar    1  LIG1        0.1701
     19 C           2.9620    4.0359    7.7874 C.3     1  LIG1        0.2209
     20 C           1.8723    4.8788    7.4268 C.2     1  LIG1        0.1495
     21 C           0.8923    4.6622    6.3597 C.ar    1  LIG1        0.1751
     22 C          -0.2527    5.4728    5.9717 C.ar    1  LIG1        0.1893
@<TRIPOS>BOND
     1    16     7   ar
     2    16     6   ar
     3     7    22   ar
     4     6    21   ar
     5    22    21   ar
     6    22     8    1
     7     9     8    1
     8    21    20    1
     9    13     3   ar
    10    13     2   ar
    11     8    10    1
    12     3    18   ar
    13     2    17   ar
    14    18    17   ar
    15    18    19    1
    16    20    19    1
    17    20     5    2
    18    17     1    1
    19    19     4    1
    20     1    12    2
    21     1    11    2
    22     5    15    1
    23     4    15    1
    24     4    14    1
