@<TRIPOS>MOLECULE
N-[(2E)-10-(4-chlorophenyl)-3-[(4-chlorophenyl)amino] -2,10-dihydrophenazin-2-ylidene]propan-2-aminium ethanol  2-{2-[(2,6-dichlorophenyl)amino]phenyl}acetate
 94 98 0 0 0
SMALL
GASTEIGER

@<TRIPOS>ATOM
      1 CL          8.2038   -2.0026   -0.9568 Cl      1  LIG1       -0.0835
      2 CL          3.9674    8.8442    9.2536 Cl      1  LIG1       -0.0835
      3 N           7.0464   -0.3662    4.6170 N.pl3   1  LIG1       -0.2802
      4 N           6.0764    0.5832    7.0625 N.2     1  LIG1       -0.2477
      5 N           6.5956    5.0967    5.5177 N.pl3   1  LIG1       -0.3130
      6 H           7.1057    5.5273    5.0615 H       1  LIG1        0.1522
      7 N           7.0053    4.1488    2.9993 N.pl3   1  LIG1       -0.3403
      8 H           6.7759    4.9823    3.1618 H       1  LIG1        0.1464
      9 C           6.9862   -2.6532    5.4805 C.ar    1  LIG1       -0.0382
     10 H           7.3600   -2.9931    4.6760 H       1  LIG1        0.0637
     11 C           6.6401   -3.5076    6.5077 C.ar    1  LIG1       -0.0599
     12 H           6.7821   -4.4414    6.4052 H       1  LIG1        0.0618
     13 C           6.0828   -3.0234    7.6988 C.ar    1  LIG1       -0.0596
     14 H           5.8211   -3.6299    8.3816 H       1  LIG1        0.0618
     15 C           5.9145   -1.6672    7.8801 C.ar    1  LIG1       -0.0345
     16 H           5.5591   -1.3401    8.6982 H       1  LIG1        0.0639
     17 C           6.2692   -0.7585    6.8515 C.ar    1  LIG1        0.0856
     18 C           6.3794    1.4279    6.0816 C.2     1  LIG1        0.0744
     19 C           6.2418    2.8269    6.3052 C.2     1  LIG1       -0.0149
     20 H           5.9179    3.1319    7.1446 H       1  LIG1        0.0655
     21 C           6.5650    3.7464    5.3389 C.2     1  LIG1        0.0540
     22 C           6.9323    3.2744    3.9916 C.2     1  LIG1        0.0474
     23 C           7.1654    1.8946    3.7907 C.2     1  LIG1       -0.0291
     24 H           7.5157    1.5907    2.9616 H       1  LIG1        0.0617
     25 C           6.8869    0.9854    4.7929 C.3     1  LIG1        0.1326
     26 C           6.7772   -1.2704    5.6426 C.ar    1  LIG1        0.0608
     27 C           7.3452   -0.8376    3.2843 C.ar    1  LIG1        0.0353
     28 C           8.6617   -1.0737    2.8950 C.ar    1  LIG1       -0.0389
     29 H           9.3733   -0.9699    3.5158 H       1  LIG1        0.0637
     30 C           8.9192   -1.4619    1.5905 C.ar    1  LIG1       -0.0416
     31 H           9.8088   -1.6395    1.3086 H       1  LIG1        0.0633
     32 C           7.8634   -1.5881    0.7020 C.ar    1  LIG1        0.0411
     33 C           6.5479   -1.3674    1.0859 C.ar    1  LIG1       -0.0416
     34 H           5.8386   -1.4678    0.4619 H       1  LIG1        0.0633
     35 C           6.2874   -0.9971    2.3985 C.ar    1  LIG1       -0.0389
     36 H           5.3939   -0.8542    2.6880 H       1  LIG1        0.0637
     37 C           5.9884    5.8803    6.5063 C.ar    1  LIG1        0.0314
     38 C           6.5675    7.1299    6.7567 C.ar    1  LIG1       -0.0392
     39 H           7.3926    7.3599    6.3460 H       1  LIG1        0.0636
     40 C           5.9427    8.0310    7.5998 C.ar    1  LIG1       -0.0416
     41 H           6.3249    8.8873    7.7521 H       1  LIG1        0.0633
     42 C           4.7604    7.6777    8.2186 C.ar    1  LIG1        0.0411
     43 C           4.1824    6.4278    8.0233 C.ar    1  LIG1       -0.0416
     44 H           3.3803    6.1907    8.4738 H       1  LIG1        0.0633
     45 C           4.7993    5.5311    7.1573 C.ar    1  LIG1       -0.0392
     46 H           4.4114    4.6770    7.0066 H       1  LIG1        0.0636
     47 C           7.4042    3.8365    1.6214 C.3     1  LIG1        0.0151
     48 H           7.1094    2.9038    1.4137 H       1  LIG1        0.0492
     49 C           6.7021    4.7841    0.6584 C.3     1  LIG1       -0.0470
     50 H           5.7333    4.7315    0.7963 H       1  LIG1        0.0247
     51 H           6.9150    4.5295   -0.2638 H       1  LIG1        0.0247
     52 H           7.0062    5.7011    0.8225 H       1  LIG1        0.0247
     53 C           8.9159    3.9015    1.4747 C.3     1  LIG1       -0.0470
     54 H           9.2278    4.8026    1.7025 H       1  LIG1        0.0247
     55 H           9.1638    3.6946    0.5495 H       1  LIG1        0.0247
     56 H           9.3312    3.2503    2.0778 H       1  LIG1        0.0247
     57 CL          3.5220    6.9561    0.8332 Cl      2  LIG2       -0.0816
     58 CL          5.7794   11.8428    0.5043 Cl      2  LIG2       -0.0816
     59 O           8.3846    6.7516    4.0717 O.co2   2  LIG2       -0.2460
     60 O           6.4612    6.9043    2.9724 O.co2   2  LIG2       -0.2460
     61 N           5.3305    9.1442    1.7206 N.pl3   2  LIG2       -0.3120
     62 H           5.4491    8.3397    1.8371 H       2  LIG2        0.1522
     63 C           7.5221    7.4041    3.4190 C.2     2  LIG2        0.3603
     64 C           7.7715    8.8929    3.1665 C.3     2  LIG2        0.0760
     65 H           8.6085    9.1621    3.6216 H       2  LIG2        0.0428
     66 H           7.8941    9.0398    2.1952 H       2  LIG2        0.0428
     67 C           6.6395    9.7657    3.6586 C.ar    2  LIG2       -0.0155
     68 C           6.7526   10.4658    4.8536 C.ar    2  LIG2       -0.0563
     69 H           7.5367   10.3598    5.3800 H       2  LIG2        0.0621
     70 C           5.7492   11.3165    5.2977 C.ar    2  LIG2       -0.0614
     71 H           5.8454   11.7834    6.1192 H       2  LIG2        0.0618
     72 C           4.6035   11.4789    4.5303 C.ar    2  LIG2       -0.0600
     73 H           3.9231   12.0781    4.8134 H       2  LIG2        0.0618
     74 C           4.4528   10.7634    3.3461 C.ar    2  LIG2       -0.0403
     75 H           3.6584   10.8598    2.8342 H       2  LIG2        0.0636
     76 C           5.4605    9.9059    2.9063 C.ar    2  LIG2        0.0351
     77 C           4.4817    9.4708    0.6779 C.ar    2  LIG2        0.0684
     78 C           3.5806    8.5429    0.1230 C.ar    2  LIG2        0.0635
     79 C           2.7718    8.8349   -0.9573 C.ar    2  LIG2       -0.0415
     80 H           2.1771    8.1785   -1.2998 H       2  LIG2        0.0633
     81 C           2.8335   10.0939   -1.5384 C.ar    2  LIG2       -0.0589
     82 H           2.2628   10.3136   -2.2652 H       2  LIG2        0.0618
     83 C           3.7339   11.0310   -1.0498 C.ar    2  LIG2       -0.0415
     84 H           3.7880   11.8907   -1.4493 H       2  LIG2        0.0633
     85 C           4.5526   10.7138    0.0164 C.ar    2  LIG2        0.0635
     86 O           9.0777    6.1973    8.6173 O.3     1  LIG1       -0.3953
     87 C           7.3444    5.6565   10.1592 C.3     1  LIG1       -0.0418
     88 H           7.1704    5.3980   11.0880 H       1  LIG1        0.0252
     89 H           7.0373    4.9452    9.5588 H       1  LIG1        0.0252
     90 H           6.8643    6.4860    9.9550 H       1  LIG1        0.0252
     91 C           8.8128    5.8707    9.9679 C.3     1  LIG1        0.0414
     92 H           9.1219    6.6041   10.5559 H       1  LIG1        0.0554
     93 H           9.3044    5.0477   10.2149 H       1  LIG1        0.0554
     94 H           9.9537    6.2557    8.5232 H       1  LIG1        0.2094
@<TRIPOS>BOND
     1    82    81    1
     2    81    83   ar
     3    81    79   ar
     4    84    83    1
     5    80    79    1
     6    83    85   ar
     7    79    78   ar
     8     1    32    1
     9    51    49    1
    10    85    58    1
    11    85    77   ar
    12    78    77   ar
    13    78    57    1
    14    34    33    1
    15    55    53    1
    16    49    50    1
    17    49    52    1
    18    49    47    1
    19    77    61    1
    20    32    33   ar
    21    32    30   ar
    22    33    35   ar
    23    31    30    1
    24    48    47    1
    25    53    47    1
    26    53    54    1
    27    53    56    1
    28    30    28   ar
    29    47     7    1
    30    61    62    1
    31    61    76    1
    32    66    64    1
    33    35    36    1
    34    35    27   ar
    35    75    74    1
    36    28    27   ar
    37    28    29    1
    38    76    74   ar
    39    76    67   ar
    40    24    23    1
    41    60    63   ar
    42     7     8    1
    43     7    22    1
    44    64    63    1
    45    64    65    1
    46    64    67    1
    47    27     3    1
    48    74    72   ar
    49    63    59   ar
    50    67    68   ar
    51    23    22    2
    52    23    25    1
    53    22    21    1
    54    72    73    1
    55    72    70   ar
    56     3    25    1
    57     3    26    1
    58    10     9    1
    59    25    18    1
    60    68    70   ar
    61    68    69    1
    62     6     5    1
    63    70    71    1
    64    21     5    1
    65    21    19    2
    66     9    26   ar
    67     9    11   ar
    68     5    37    1
    69    26    17   ar
    70    18    19    1
    71    18     4    2
    72    19    20    1
    73    39    38    1
    74    12    11    1
    75    37    38   ar
    76    37    45   ar
    77    11    13   ar
    78    38    40   ar
    79    17     4    1
    80    17    15   ar
    81    46    45    1
    82    45    43   ar
    83    40    41    1
    84    40    42   ar
    85    13    15   ar
    86    13    14    1
    87    15    16    1
    88    43    42   ar
    89    43    44    1
    90    42     2    1
    91    94    86    1
    92    86    91    1
    93    89    87    1
    94    90    87    1
    95    91    87    1
    96    91    93    1
    97    91    92    1
    98    87    88    1
