@<TRIPOS>MOLECULE
C13 H8 F N O3
 26 28 0 0 0
SMALL
GASTEIGER

@<TRIPOS>ATOM
      1 F           2.2311    2.1967    8.2304 F       1  LIG1       -0.2054
      2 O           4.2871    3.9919    4.4262 O.3     1  LIG1       -0.4553
      3 O           6.3675    5.9228    0.7038 O.2     1  LIG1       -0.2877
      4 O           5.8606    8.4241    1.5684 O.2     1  LIG1       -0.5033
      5 H           6.2217    8.1577    0.8823 H       1  LIG1        0.2923
      6 N           3.7522    6.6030    5.3491 N.pl3   1  LIG1       -0.2078
      7 C           3.2540    3.0654    6.3278 C.ar    1  LIG1        0.0178
      8 H           3.4361    2.2086    6.0167 H       1  LIG1        0.0684
      9 C           2.6065    3.2756    7.5126 C.ar    1  LIG1        0.1270
     10 C           2.3173    4.5303    8.0141 C.ar    1  LIG1       -0.0244
     11 H           1.8784    4.6269    8.8276 H       1  LIG1        0.0647
     12 C           2.6928    5.6313    7.2826 C.ar    1  LIG1       -0.0324
     13 H           2.4987    6.4833    7.5994 H       1  LIG1        0.0639
     14 C           3.3641    5.4813    6.0648 C.ar    1  LIG1        0.0961
     15 C           3.6265    4.1908    5.6123 C.ar    1  LIG1        0.1537
     16 C           4.3978    6.4151    4.2295 C.2     1  LIG1        0.0964
     17 C           4.7005    5.0841    3.7016 C.2     1  LIG1        0.1434
     18 C           5.3426    4.8655    2.5375 C.3     1  LIG1        0.1126
     19 C           5.7694    6.0272    1.7749 C.2     1  LIG1        0.2117
     20 C           5.4650    7.3731    2.3037 C.2     1  LIG1        0.1622
     21 C           4.8199    7.5504    3.4613 C.2     1  LIG1        0.0096
     22 H           4.6452    8.4105    3.7686 H       1  LIG1        0.0675
     23 C           5.6002    3.4934    1.9917 C.3     1  LIG1       -0.0439
     24 H           5.8443    2.9039    2.7091 H       1  LIG1        0.0244
     25 H           6.3145    3.5319    1.3517 H       1  LIG1        0.0244
     26 H           4.8059    3.1645    1.5647 H       1  LIG1        0.0244
@<TRIPOS>BOND
     1     3    19    2
     2     5     4    1
     3    25    23    1
     4    26    23    1
     5     4    20    1
     6    19    20    1
     7    19    18    1
     8    23    18    1
     9    23    24    1
    10    20    21    2
    11    18    17    1
    12    21    22    1
    13    21    16    1
    14    17    16    2
    15    17     2    1
    16    16     6    1
    17     2    15    1
    18     6    14    1
    19    15    14   ar
    20    15     7   ar
    21     8     7    1
    22    14    12   ar
    23     7     9   ar
    24    12    13    1
    25    12    10   ar
    26     9    10   ar
    27     9     1    1
    28    10    11    1
