@<TRIPOS>MOLECULE
7700253.cif
 42 43 0 0 0
SMALL
GASTEIGER

@<TRIPOS>ATOM
      1 O          -0.1644    0.6782    1.5832 O.3     1  LIG1       -0.4771
      2 H          -0.2363    0.0169    1.1041 H       1  LIG1        0.2954
      3 O           0.7801    3.0994    5.7846 O.3     1  LIG1       -0.4771
      4 H           0.6806    3.2057    6.5921 H       1  LIG1        0.2954
      5 O           1.8764    6.3981   -0.3871 O.2     1  LIG1       -0.2451
      6 O           1.4719    7.5566    1.4707 O.3     1  LIG1       -0.4771
      7 H           1.8665    8.1543    1.0704 H       1  LIG1        0.2954
      8 O           0.5263    1.5791   -0.3321 O.2     1  LIG1       -0.2451
      9 O           0.4383    5.2881    5.7475 O.2     1  LIG1       -0.2451
     10 N           0.6165    3.1592    8.3470 N.ar    2  LIG2       -0.2632
     11 C           1.1255    5.2510    1.5600 C.ar    1  LIG1        0.0604
     12 C           1.5364    6.4492    0.7735 C.2     1  LIG1        0.3368
     13 C           0.7024    4.1584    3.6720 C.ar    1  LIG1        0.0604
     14 C           0.5219    2.9309    1.6038 C.ar    1  LIG1        0.0604
     15 C           0.4331    2.9783    2.9923 C.ar    1  LIG1       -0.0338
     16 H           0.1919    2.2162    3.4671 H       1  LIG1        0.0634
     17 C           0.8838    4.0599    0.8901 C.ar    1  LIG1       -0.0338
     18 H           0.9650    4.0201   -0.0350 H       1  LIG1        0.0634
     19 C           0.6352    4.2244    5.1826 C.2     1  LIG1        0.3368
     20 C           1.0323    5.2959    2.9504 C.ar    1  LIG1       -0.0338
     21 H           1.1927    6.0950    3.3972 H       1  LIG1        0.0634
     22 C           0.2798    1.6504    0.8984 C.2     1  LIG1        0.3368
     23 C           0.5885    3.2272   11.1072 C.ar    2  LIG2       -0.0150
     24 C           0.8579    2.0488   10.4170 C.ar    2  LIG2       -0.0359
     25 H           1.0355    1.2644   10.8835 H       2  LIG2        0.0639
     26 C           0.6154    3.2886   12.5894 C.ar    2  LIG2       -0.0178
     27 C           0.8609    2.0499    9.0368 C.ar    2  LIG2        0.0281
     28 H           1.0369    1.2592    8.5804 H       2  LIG2        0.0830
     29 C           0.3075    4.3583   10.3426 C.ar    2  LIG2       -0.0359
     30 H           0.0959    5.1600   10.7636 H       2  LIG2        0.0639
     31 C           0.3410    4.2972    8.9702 C.ar    2  LIG2        0.0281
     32 H           0.1682    5.0627    8.4718 H       2  LIG2        0.0830
     33 C           0.8850    4.4862   13.2359 C.ar    2  LIG2       -0.0540
     34 H           1.0811    5.2443   12.7357 H       2  LIG2        0.0624
     35 C           0.3425    2.1693   13.3581 C.ar    2  LIG2       -0.0540
     36 H           0.1613    1.3565   12.9443 H       2  LIG2        0.0624
     37 C           0.8641    4.5648   14.6197 C.ar    2  LIG2       -0.0612
     38 H           1.0430    5.3740   15.0413 H       2  LIG2        0.0618
     39 C           0.5827    3.4560   15.3663 C.ar    2  LIG2       -0.0617
     40 H           0.5563    3.5131   16.2940 H       2  LIG2        0.0618
     41 C           0.3391    2.2564   14.7436 C.ar    2  LIG2       -0.0612
     42 H           0.1708    1.4978   15.2537 H       2  LIG2        0.0618
@<TRIPOS>BOND
     1     5    12    2
     2     8    22    2
     3    18    17    1
     4    12     6    1
     5    12    11    1
     6    17    11   ar
     7    17    14   ar
     8    22     1    1
     9    22    14    1
    10     7     6    1
    11     2     1    1
    12    11    20   ar
    13    14    15   ar
    14    20    21    1
    15    20    13   ar
    16    15    16    1
    17    15    13   ar
    18    13    19    1
    19    19     9    2
    20    19     3    1
    21     3     4    1
    22    10    31   ar
    23    10    27   ar
    24    32    31    1
    25    28    27    1
    26    31    29   ar
    27    27    24   ar
    28    29    30    1
    29    29    23   ar
    30    24    25    1
    31    24    23   ar
    32    23    26    1
    33    26    33   ar
    34    26    35   ar
    35    34    33    1
    36    36    35    1
    37    33    37   ar
    38    35    41   ar
    39    37    38    1
    40    37    39   ar
    41    41    42    1
    42    41    39   ar
    43    39    40    1
