@<TRIPOS>MOLECULE
7701937.cif
 35 37 0 0 0
SMALL
GASTEIGER

@<TRIPOS>ATOM
      1 O           3.0743    9.8391   -3.8959 O.2     1  LIG1       -0.5061
      2 H           3.5031    9.1648   -3.7363 H       1  LIG1        0.2922
      3 C           2.7501   10.3199   -2.6979 C.2     1  LIG1        0.1267
      4 C           3.1905    9.8014   -1.5214 C.2     1  LIG1        0.0010
      5 H           2.8935   10.2142   -0.7427 H       1  LIG1        0.0671
      6 C           4.0659    8.6829   -1.3656 C.2     1  LIG1        0.0551
      7 S           4.7324    7.8008   -2.6093 S.2     1  LIG1       -0.0445
      8 S           4.3369    8.3237    0.3097 S.3     1  LIG1       -0.1210
      9 C           5.4544    6.9272    0.3023 C.3     1  LIG1       -0.0130
     10 H           5.0203    6.1721   -0.1005 H       1  LIG1        0.0344
     11 H           5.7021    6.7110    1.2042 H       1  LIG1        0.0344
     12 H           6.2414    7.1502   -0.2007 H       1  LIG1        0.0344
     13 C           1.8387   11.4858   -2.7615 C.ar    1  LIG1        0.0319
     14 C           0.5369   11.2995   -3.2609 C.ar    1  LIG1       -0.0067
     15 C           0.0228   10.0146   -3.6136 C.ar    1  LIG1       -0.0533
     16 H           0.5663    9.2646   -3.5305 H       1  LIG1        0.0624
     17 C          -1.2481    9.8732   -4.0683 C.ar    1  LIG1       -0.0611
     18 H          -1.5663    9.0272   -4.2871 H       1  LIG1        0.0618
     19 C          -2.0937   10.9978   -4.2133 C.ar    1  LIG1       -0.0612
     20 H          -2.9584   10.8850   -4.5367 H       1  LIG1        0.0618
     21 C          -1.6561   12.2339   -3.8857 C.ar    1  LIG1       -0.0540
     22 H          -2.2227   12.9645   -3.9867 H       1  LIG1        0.0624
     23 C          -0.3308   12.4290   -3.3855 C.ar    1  LIG1       -0.0166
     24 C           0.1294   13.6872   -3.0155 C.ar    1  LIG1       -0.0463
     25 H          -0.4336   14.4210   -3.1126 H       1  LIG1        0.0630
     26 C           1.4060   13.8793   -2.5050 C.ar    1  LIG1       -0.0166
     27 C           1.8705   15.1792   -2.1538 C.ar    1  LIG1       -0.0540
     28 H           1.2996   15.9085   -2.2400 H       1  LIG1        0.0624
     29 C           3.1286   15.3680   -1.6971 C.ar    1  LIG1       -0.0612
     30 H           3.4192   16.2236   -1.4773 H       1  LIG1        0.0618
     31 C           4.0040   14.2640   -1.5529 C.ar    1  LIG1       -0.0611
     32 H           4.8650   14.4026   -1.2305 H       1  LIG1        0.0618
     33 C           3.6064   13.0047   -1.8779 C.ar    1  LIG1       -0.0533
     34 H           4.2001   12.2957   -1.7794 H       1  LIG1        0.0624
     35 C           2.2901   12.7583   -2.3678 C.ar    1  LIG1       -0.0067
@<TRIPOS>BOND
     1    20    19    1
     2    18    17    1
     3    19    17   ar
     4    19    21   ar
     5    17    15   ar
     6    22    21    1
     7     1     2    1
     8     1     3    1
     9    21    23   ar
    10    15    16    1
    11    15    14   ar
    12    23    14   ar
    13    23    24   ar
    14    14    13   ar
    15    25    24    1
    16    24    26   ar
    17    13     3    1
    18    13    35   ar
    19     3     4    2
    20     7     6    2
    21    26    35   ar
    22    26    27   ar
    23    35    33   ar
    24    28    27    1
    25    27    29   ar
    26    33    34    1
    27    33    31   ar
    28    29    31   ar
    29    29    30    1
    30    31    32    1
    31     4     6    1
    32     4     5    1
    33     6     8    1
    34    12     9    1
    35    10     9    1
    36     9     8    1
    37     9    11    1
