@<TRIPOS>MOLECULE
C26 H42 B N P2
 144 146 0 0 0
SMALL
GASTEIGER

@<TRIPOS>ATOM
      1 P           3.0260   -1.4954    4.2196 P.3     1  LIG1        0.0000
      2 P           4.3321    1.6664    4.4967 P.3     1  LIG1        0.0000
      3 N           1.4203    0.9664    4.0931 N.3     1  LIG1        0.0000
      4 C           3.8991   -1.8473    5.8688 C.3     1  LIG1        0.0000
      5 C           3.0730   -1.1240    6.9409 C.3     1  LIG1        0.0000
      6 H           3.0925   -0.1589    6.7720 H       1  LIG1        0.0000
      7 H           3.4531   -1.3086    7.8252 H       1  LIG1        0.0000
      8 H           2.1470   -1.4427    6.9101 H       1  LIG1        0.0000
      9 C           5.3758   -1.4472    6.0062 C.3     1  LIG1        0.0000
     10 H           5.9152   -1.9652    5.3724 H       1  LIG1        0.0000
     11 H           5.6806   -1.6302    6.9196 H       1  LIG1        0.0000
     12 H           5.4750   -0.4914    5.8142 H       1  LIG1        0.0000
     13 C           3.7784   -3.3563    6.1518 C.3     1  LIG1        0.0000
     14 H           2.8455   -3.6359    6.0417 H       1  LIG1        0.0000
     15 H           4.0687   -3.5408    7.0694 H       1  LIG1        0.0000
     16 H           4.3443   -3.8525    5.5240 H       1  LIG1        0.0000
     17 C           4.1841   -1.8424    2.7525 C.3     1  LIG1        0.0000
     18 C           4.6794   -3.2906    2.8520 C.3     1  LIG1        0.0000
     19 H           5.3127   -3.3686    3.5966 H       1  LIG1        0.0000
     20 H           5.1249   -3.5423    2.0169 H       1  LIG1        0.0000
     21 H           3.9171   -3.8864    3.0089 H       1  LIG1        0.0000
     22 C           5.3921   -0.9238    2.5534 C.3     1  LIG1        0.0000
     23 H           5.0823   -0.0135    2.3643 H       1  LIG1        0.0000
     24 H           5.9295   -1.2490    1.8012 H       1  LIG1        0.0000
     25 H           5.9378   -0.9207    3.3674 H       1  LIG1        0.0000
     26 C           3.2885   -1.7344    1.5040 C.3     1  LIG1        0.0000
     27 H           2.5776   -2.4076    1.5527 H       1  LIG1        0.0000
     28 H           3.8277   -1.8863    0.7003 H       1  LIG1        0.0000
     29 H           2.8887   -0.8402    1.4651 H       1  LIG1        0.0000
     30 C           0.1503    0.1535    4.0222 C.3     1  LIG1        0.0000
     31 H          -0.5940    0.8194    3.9689 H       1  LIG1        0.0000
     32 C          -0.1151   -0.6571    5.2757 C.3     1  LIG1        0.0000
     33 H           0.5178   -1.4038    5.3220 H       1  LIG1        0.0000
     34 H          -1.0307   -1.0061    5.2513 H       1  LIG1        0.0000
     35 H          -0.0045   -0.0855    6.0640 H       1  LIG1        0.0000
     36 C           0.0520   -0.6749    2.7498 C.3     1  LIG1        0.0000
     37 H           0.2802   -0.1162    1.9777 H       1  LIG1        0.0000
     38 H          -0.8625   -1.0128    2.6496 H       1  LIG1        0.0000
     39 H           0.6751   -1.4296    2.8024 H       1  LIG1        0.0000
     40 C           1.1226    2.4239    4.0287 C.3     1  LIG1        0.0000
     41 H           2.0025    2.8970    3.9817 H       1  LIG1        0.0000
     42 C           0.4244    2.9151    5.2920 C.3     1  LIG1        0.0000
     43 H          -0.4630    2.5038    5.3558 H       1  LIG1        0.0000
     44 H           0.3305    3.8899    5.2555 H       1  LIG1        0.0000
     45 H           0.9564    2.6673    6.0768 H       1  LIG1        0.0000
     46 C           0.3429    2.8124    2.7690 C.3     1  LIG1        0.0000
     47 H           0.7489    2.3828    1.9875 H       1  LIG1        0.0000
     48 H           0.3676    3.7857    2.6565 H       1  LIG1        0.0000
     49 H          -0.5879    2.5176    2.8570 H       1  LIG1        0.0000
     50 C           3.8825    3.0059    5.6898 C.ar    1  LIG1        0.0000
     51 C           3.9486    2.6818    7.0494 C.ar    1  LIG1        0.0000
     52 H           4.2029    1.8039    7.3085 H       1  LIG1        0.0000
     53 C           3.6483    3.6238    8.0274 C.ar    1  LIG1        0.0000
     54 H           3.6759    3.3805    8.9454 H       1  LIG1        0.0000
     55 C           3.3086    4.9147    7.6645 C.ar    1  LIG1        0.0000
     56 H           3.0999    5.5578    8.3319 H       1  LIG1        0.0000
     57 C           3.2738    5.2665    6.3283 C.ar    1  LIG1        0.0000
     58 H           3.0556    6.1566    6.0780 H       1  LIG1        0.0000
     59 C           3.5576    4.3186    5.3481 C.ar    1  LIG1        0.0000
     60 H           3.5296    4.5701    4.4324 H       1  LIG1        0.0000
     61 C           4.5109    2.5987    2.9259 C.ar    1  LIG1        0.0000
     62 C           5.5440    3.5440    2.8391 C.ar    1  LIG1        0.0000
     63 H           6.1055    3.6976    3.5897 H       1  LIG1        0.0000
     64 C           5.7532    4.2586    1.6637 C.ar    1  LIG1        0.0000
     65 H           6.4456    4.9076    1.6230 H       1  LIG1        0.0000
     66 C           4.9616    4.0308    0.5574 C.ar    1  LIG1        0.0000
     67 H           5.1063    4.5244   -0.2414 H       1  LIG1        0.0000
     68 C           3.9543    3.0786    0.6151 C.ar    1  LIG1        0.0000
     69 H           3.4174    2.9069   -0.1496 H       1  LIG1        0.0000
     70 C           3.7322    2.3759    1.7950 C.ar    1  LIG1        0.0000
     71 H           3.0347    1.7313    1.8289 H       1  LIG1        0.0000
     72 B           2.7227    0.4786    4.2245 B       1  LIG1        0.0000
     73 P           6.2541   11.4595   10.9140 P.3     2  LIG2        0.0000
     74 P           5.6053    8.2746    9.8313 P.3     2  LIG2        0.0000
     75 N           7.1904    9.0396   12.2879 N.3     2  LIG2        0.0000
     76 C           7.0289   11.8565    9.2226 C.3     2  LIG2        0.0000
     77 C           6.6395   13.2970    8.8355 C.3     2  LIG2        0.0000
     78 H           5.6834   13.3315    8.6241 H       2  LIG2        0.0000
     79 H           7.1578   13.5758    8.0517 H       2  LIG2        0.0000
     80 H           6.8307   13.8995    9.5844 H       2  LIG2        0.0000
     81 C           8.5480   11.8298    9.4652 C.3     2  LIG2        0.0000
     82 H           8.7776   12.4724   10.1686 H       2  LIG2        0.0000
     83 H           9.0150   12.0701    8.6379 H       2  LIG2        0.0000
     84 H           8.8184   10.9300    9.7436 H       2  LIG2        0.0000
     85 C           6.7225   10.9250    8.0464 C.3     2  LIG2        0.0000
     86 H           7.1026   10.0393    8.2237 H       2  LIG2        0.0000
     87 H           7.1170   11.2920    7.2278 H       2  LIG2        0.0000
     88 H           5.7519   10.8477    7.9352 H       2  LIG2        0.0000
     89 C           4.3576   11.6874   10.8628 C.3     2  LIG2        0.0000
     90 C           4.0611   13.1702   11.1477 C.3     2  LIG2        0.0000
     91 H           4.5756   13.4623   11.9287 H       2  LIG2        0.0000
     92 H           3.1037   13.2833   11.3264 H       2  LIG2        0.0000
     93 H           4.3136   13.7094   10.3694 H       2  LIG2        0.0000
     94 C           3.8041   10.8701   12.0388 C.3     2  LIG2        0.0000
     95 H           4.0037    9.9208   11.8998 H       2  LIG2        0.0000
     96 H           2.8332   10.9946   12.0948 H       2  LIG2        0.0000
     97 H           4.2205   11.1730   12.8723 H       2  LIG2        0.0000
     98 C           3.6222   11.2904    9.5825 C.3     2  LIG2        0.0000
     99 H           3.9450   11.8382    8.8368 H       2  LIG2        0.0000
    100 H           2.6596   11.4343    9.7005 H       2  LIG2        0.0000
    101 H           3.7894   10.3444    9.3893 H       2  LIG2        0.0000
    102 C           4.8539    6.8189   10.7009 C.ar    2  LIG2        0.0000
    103 C           3.5796    6.9712   11.2387 C.ar    2  LIG2        0.0000
    104 H           3.1414    7.8115   11.1742 H       2  LIG2        0.0000
    105 C           2.9414    5.9116   11.8685 C.ar    2  LIG2        0.0000
    106 H           2.0805    6.0419   12.2497 H       2  LIG2        0.0000
    107 C           3.5454    4.6627   11.9482 C.ar    2  LIG2        0.0000
    108 H           3.1001    3.9377   12.3711 H       2  LIG2        0.0000
    109 C           4.8013    4.4914   11.4033 C.ar    2  LIG2        0.0000
    110 H           5.2263    3.6433   11.4552 H       2  LIG2        0.0000
    111 C           5.4496    5.5503   10.7792 C.ar    2  LIG2        0.0000
    112 H           6.3100    5.4135   10.3995 H       2  LIG2        0.0000
    113 C           7.0004    7.4456    8.9655 C.ar    2  LIG2        0.0000
    114 C           6.6718    6.5464    7.9431 C.ar    2  LIG2        0.0000
    115 H           5.7624    6.4312    7.6951 H       2  LIG2        0.0000
    116 C           7.6553    5.8223    7.2877 C.ar    2  LIG2        0.0000
    117 H           7.4137    5.1986    6.6131 H       2  LIG2        0.0000
    118 C           8.9875    6.0048    7.6127 C.ar    2  LIG2        0.0000
    119 H           9.6611    5.5044    7.1670 H       2  LIG2        0.0000
    120 C           9.3353    6.9226    8.5930 C.ar    2  LIG2        0.0000
    121 H          10.2498    7.0632    8.8083 H       2  LIG2        0.0000
    122 C           8.3464    7.6370    9.2610 C.ar    2  LIG2        0.0000
    123 H           8.5944    8.2655    9.9290 H       2  LIG2        0.0000
    124 C           7.7951    9.8569   13.4012 C.3     2  LIG2        0.0000
    125 H           8.1758    9.1946   14.0467 H       2  LIG2        0.0000
    126 C           6.7794   10.6657   14.1926 C.3     2  LIG2        0.0000
    127 H           6.4594   11.4130   13.6455 H       2  LIG2        0.0000
    128 H           7.2014   11.0135   15.0060 H       2  LIG2        0.0000
    129 H           6.0236   10.0918   14.4364 H       2  LIG2        0.0000
    130 C           8.9727   10.7026   12.9371 C.3     2  LIG2        0.0000
    131 H           9.6064   10.1389   12.4454 H       2  LIG2        0.0000
    132 H           9.4209   11.0944   13.7157 H       2  LIG2        0.0000
    133 H           8.6501   11.4188   12.3512 H       2  LIG2        0.0000
    134 C           7.3947    7.5859   12.5284 C.3     2  LIG2        0.0000
    135 H           7.0860    7.1131   11.7032 H       2  LIG2        0.0000
    136 C           6.5291    7.0777   13.6707 C.3     2  LIG2        0.0000
    137 H           6.7829    7.5331   14.5005 H       2  LIG2        0.0000
    138 H           6.6595    6.1121   13.7748 H       2  LIG2        0.0000
    139 H           5.5868    7.2606   13.4728 H       2  LIG2        0.0000
    140 C           8.8641    7.2082   12.7258 C.3     2  LIG2        0.0000
    141 H           9.4112    7.6586   12.0487 H       2  LIG2        0.0000
    142 H           8.9670    6.2378   12.6361 H       2  LIG2        0.0000
    143 H           9.1560    7.4864   13.6191 H       2  LIG2        0.0000
    144 B           6.4862    9.5022   11.1806 B       2  LIG2        0.0000
@<TRIPOS>BOND
     1    67    66    1
     2    69    68    1
     3    66    68   ar
     4    66    64   ar
     5    68    70   ar
     6    28    26    1
     7    29    26    1
     8    26    27    1
     9    26    17    1
    10    65    64    1
    11    64    62   ar
    12    70    71    1
    13    70    61   ar
    14    24    22    1
    15    37    36    1
    16    47    46    1
    17    20    18    1
    18    23    22    1
    19    22    17    1
    20    22    25    1
    21    38    36    1
    22    48    46    1
    23    36    39    1
    24    36    30    1
    25    17    18    1
    26    17     1    1
    27    46    49    1
    28    46    40    1
    29    62    61   ar
    30    62    63    1
    31    18    21    1
    32    18    19    1
    33    61     2    1
    34    31    30    1
    35    41    40    1
    36    30     3    1
    37    30    32    1
    38    40     3    1
    39    40    42    1
    40     3    72    1
    41     1    72    1
    42     1     4    1
    43    72     2    1
    44    60    59    1
    45     2    50    1
    46    34    32    1
    47    44    42    1
    48    32    33    1
    49    32    35    1
    50    42    43    1
    51    42    45    1
    52    59    50   ar
    53    59    57   ar
    54    10     9    1
    55    16    13    1
    56    50    51   ar
    57    12     9    1
    58     4     9    1
    59     4    13    1
    60     4     5    1
    61     9    11    1
    62    14    13    1
    63    58    57    1
    64    13    15    1
    65    57    55   ar
    66   117   116    1
    67     6     5    1
    68     8     5    1
    69     5     7    1
    70    51    52    1
    71    51    53   ar
    72   119   118    1
    73    87    85    1
    74   116   118   ar
    75   116   114   ar
    76   118   120   ar
    77    55    53   ar
    78    55    56    1
    79   115   114    1
    80    88    85    1
    81   114   113   ar
    82    53    54    1
    83    85    86    1
    84    85    76    1
    85    79    77    1
    86   120   121    1
    87   120   122   ar
    88    78    77    1
    89    83    81    1
    90    77    76    1
    91    77    80    1
    92    99    98    1
    93   113   122   ar
    94   113    74    1
    95    76    81    1
    96    76    73    1
    97   122   123    1
    98   101    98    1
    99    81    84    1
   100    81    82    1
   101    98   100    1
   102    98    89    1
   103    74   102    1
   104    74   144    1
   105    93    90    1
   106   112   111    1
   107   102   111   ar
   108   102   103   ar
   109   111   109   ar
   110    89    73    1
   111    89    90    1
   112    89    94    1
   113    73   144    1
   114    90    92    1
   115    90    91    1
   116   104   103    1
   117   144    75    1
   118   103   105   ar
   119   109   110    1
   120   109   107   ar
   121   135   134    1
   122   105   107   ar
   123   105   106    1
   124    95    94    1
   125   107   108    1
   126    94    96    1
   127    94    97    1
   128   141   140    1
   129    75   134    1
   130    75   124    1
   131   133   130    1
   132   131   130    1
   133   134   140    1
   134   134   136    1
   135   142   140    1
   136   140   143    1
   137   130   124    1
   138   130   132    1
   139   124   125    1
   140   124   126    1
   141   139   136    1
   142   127   126    1
   143   136   138    1
   144   136   137    1
   145   126   129    1
   146   126   128    1
