@<TRIPOS>MOLECULE
C12 H9 N3 O
 25 26 0 0 0
SMALL
GASTEIGER

@<TRIPOS>ATOM
      1 N          23.4381    1.5930    1.1975 N.ar    1  LIG1       -0.2124
      2 O          27.3093    3.1154    0.7508 O.2     1  LIG1       -0.2757
      3 C          22.0338    0.3209   -1.9656 C.ar    1  LIG1       -0.0484
      4 H          22.2631    0.1482   -2.8501 H       1  LIG1        0.0625
      5 N          21.3427    0.7914    0.7203 N.ar    1  LIG1       -0.2190
      6 C          19.1239    0.0818    0.3070 C.1     1  LIG1       -0.0497
      7 C          22.5885    1.0773    0.2661 C.ar    1  LIG1        0.1630
      8 N          25.4643    2.3571    1.8693 N.am    1  LIG1       -0.2706
      9 C          22.9821    0.8612   -1.0746 C.ar    1  LIG1        0.0194
     10 C          25.1483    1.7349   -0.5074 C.ar    1  LIG1       -0.0208
     11 H          26.0157    1.9791   -0.7373 H       1  LIG1        0.0652
     12 C          24.3022    1.2134   -1.4294 C.ar    1  LIG1       -0.0478
     13 H          24.5941    1.0866   -2.3033 H       1  LIG1        0.0626
     14 C          24.6679    1.8981    0.8264 C.ar    1  LIG1        0.1273
     15 C          20.4684    0.3169   -0.1604 C.ar    1  LIG1        0.1155
     16 C          26.7063    2.9396    1.8007 C.2     1  LIG1        0.2152
     17 C          20.7788    0.0555   -1.5150 C.ar    1  LIG1       -0.0271
     18 H          20.1345   -0.2924   -2.0885 H       1  LIG1        0.0645
     19 C          27.2754    3.3463    3.1255 C.3     1  LIG1        0.0125
     20 H          27.8068    2.6296    3.4793 H       1  LIG1        0.0323
     21 H          26.5596    3.5445    3.7339 H       1  LIG1        0.0323
     22 H          27.8240    4.1260    3.0123 H       1  LIG1        0.0323
     23 C          17.9910   -0.0937    0.6087 C.1     1  LIG1       -0.1124
     24 H          17.1022   -0.2318    0.8455 H       1  LIG1        0.1232
     25 H          25.0951    2.2266    2.6699 H       1  LIG1        0.1562
@<TRIPOS>BOND
     1     4     3    1
     2    13    12    1
     3    18    17    1
     4     3    17   ar
     5     3     9   ar
     6    17    15   ar
     7    12     9   ar
     8    12    10   ar
     9     9     7   ar
    10    11    10    1
    11    10    14   ar
    12    15     6    1
    13    15     5   ar
    14     7     5   ar
    15     7     1   ar
    16     6    23    3
    17    23    24    1
    18     2    16    2
    19    14     1   ar
    20    14     8    1
    21    16     8   am
    22    16    19    1
    23     8    25    1
    24    22    19    1
    25    19    20    1
    26    19    21    1
