@<TRIPOS>MOLECULE
C31 H25 F6 N O6
 69 72 0 0 0
SMALL
GASTEIGER

@<TRIPOS>ATOM
      1 N          -3.1084   -5.8214    1.5803 N.3     1  LIG1       -0.2909
      2 C          -0.3560   -6.2877    0.9753 C.ar    1  LIG1       -0.0573
      3 H          -0.7856   -5.5278    0.6551 H       1  LIG1        0.0621
      4 O          -7.6682    1.0796    4.8484 O.3     1  LIG1       -0.2140
      5 F          -9.8789   -4.0047   -8.3013 F       1  LIG1       -0.1632
      6 F          -9.3071   -2.4577   -9.4700 F       1  LIG1       -0.1632
      7 C          -0.9979   -7.1069    1.8690 C.ar    1  LIG1       -0.0334
      8 F          -9.6058    0.1805    9.2459 F       1  LIG1       -0.1632
      9 O          -9.1414    1.4464    6.8465 O.2     1  LIG1       -0.5036
     10 H          -8.5986    1.6713    6.2748 H       1  LIG1        0.2920
     11 C          -2.4037   -6.8361    2.3485 C.3     1  LIG1        0.0243
     12 H          -2.9100   -7.6628    2.3115 H       1  LIG1        0.0476
     13 H          -2.3675   -6.5551    3.2762 H       1  LIG1        0.0476
     14 O          -7.4069   -1.1860   -5.1950 O.3     1  LIG1       -0.2140
     15 F          -9.9855   -1.6419    8.2194 F       1  LIG1       -0.1632
     16 O          -8.8519   -0.9199   -7.2498 O.2     1  LIG1       -0.5036
     17 C          -3.5036   -6.2449    0.2416 C.3     1  LIG1        0.0400
     18 H          -4.0032   -7.0764    0.2665 H       1  LIG1        0.0464
     19 H          -2.7330   -6.3522   -0.3374 H       1  LIG1        0.0464
     20 C          -4.3868   -5.4314    2.1824 C.3     1  LIG1        0.0400
     21 H          -4.2458   -4.8810    2.9685 H       1  LIG1        0.0464
     22 H          -4.9050   -6.2121    2.4328 H       1  LIG1        0.0464
     23 F         -11.2556    0.0255    7.9777 F       1  LIG1       -0.1632
     24 O          -5.2609   -5.5946   -1.2134 O.3     1  LIG1       -0.4838
     25 O          -4.9121   -3.2202    1.2263 O.3     1  LIG1       -0.4838
     26 F         -10.8960   -2.2830   -8.4355 F       1  LIG1       -0.1632
     27 C          -5.7899   -4.7626   -2.1477 C.ar    1  LIG1        0.1212
     28 C          -5.7325   -3.3776   -2.1170 C.ar    1  LIG1       -0.0196
     29 H          -5.3138   -2.9429   -1.4097 H       1  LIG1        0.0654
     30 C          -6.4509   -5.4106   -3.1920 C.ar    1  LIG1       -0.0196
     31 H          -6.5000   -6.3386   -3.2109 H       1  LIG1        0.0654
     32 C          -7.0263   -4.6677   -4.1895 C.ar    1  LIG1       -0.0519
     33 H          -7.4758   -5.1015   -4.8788 H       1  LIG1        0.0622
     34 C          -6.9517   -3.2781   -4.1923 C.ar    1  LIG1       -0.0050
     35 C          -7.5781   -2.4774   -5.2446 C.3     1  LIG1        0.1906
     36 C          -8.9438   -2.1788   -7.2158 C.2     1  LIG1        0.1972
     37 C          -7.7429   -0.2025    5.0347 C.3     1  LIG1        0.1906
     38 C          -6.3007   -2.6486   -3.1416 C.ar    1  LIG1       -0.0519
     39 H          -6.2463   -1.7205   -3.1273 H       1  LIG1        0.0622
     40 C          -8.3484   -3.0108   -6.2676 C.2     1  LIG1        0.0047
     41 H          -8.4692   -3.9317   -6.3219 H       1  LIG1        0.0642
     42 C          -9.7342   -2.7967   -8.3232 C.3     1  LIG1        0.4494
     43 C          -5.0861   -4.6434    1.0836 C.3     1  LIG1        0.1505
     44 H          -6.0382   -4.8718    1.0480 H       1  LIG1        0.0784
     45 C          -5.6342   -2.5861    2.1967 C.ar    1  LIG1        0.1212
     46 C          -6.5474   -3.1716    3.0493 C.ar    1  LIG1       -0.0196
     47 H          -6.7144   -4.0847    2.9893 H       1  LIG1        0.0654
     48 C          -7.0118   -1.0368    4.0652 C.ar    1  LIG1       -0.0050
     49 C          -5.4075   -1.2242    2.2893 C.ar    1  LIG1       -0.0196
     50 H          -4.7852   -0.8230    1.7268 H       1  LIG1        0.0654
     51 C          -9.1514    0.1620    6.9479 C.2     1  LIG1        0.1972
     52 C          -9.9800   -0.3575    8.0931 C.3     1  LIG1        0.4494
     53 C          -7.2130   -2.4137    3.9835 C.ar    1  LIG1       -0.0519
     54 H          -7.8062   -2.8262    4.5699 H       1  LIG1        0.0622
     55 C          -8.4895   -0.6977    6.1090 C.2     1  LIG1        0.0047
     56 H          -8.5375   -1.6150    6.2552 H       1  LIG1        0.0642
     57 C          -4.3722   -5.0947   -0.2044 C.3     1  LIG1        0.1505
     58 H          -3.8207   -4.3678   -0.5632 H       1  LIG1        0.0784
     59 C          -6.0903   -0.4594    3.2030 C.ar    1  LIG1       -0.0519
     60 H          -5.9342    0.4568    3.2441 H       1  LIG1        0.0622
     61 C          -0.2895   -8.1819    2.3808 C.ar    1  LIG1       -0.0573
     62 H          -0.6976   -8.7347    3.0073 H       1  LIG1        0.0621
     63 C           0.9861   -8.4503    1.9918 C.ar    1  LIG1       -0.0615
     64 H           1.4421   -9.1690    2.3666 H       1  LIG1        0.0618
     65 C           0.9278   -6.5827    0.5507 C.ar    1  LIG1       -0.0615
     66 H           1.3419   -6.0406   -0.0811 H       1  LIG1        0.0618
     67 C           1.5970   -7.6750    1.0575 C.ar    1  LIG1       -0.0617
     68 H           2.4556   -7.8794    0.7664 H       1  LIG1        0.0618
     69 H          -8.3402   -0.6466   -6.6347 H       1  LIG1        0.2920
@<TRIPOS>BOND
     1     6    42    1
     2    26    42    1
     3    42     5    1
     4    42    36    1
     5    16    36    1
     6    16    69    1
     7    36    40    2
     8    41    40    1
     9    40    35    1
    10    35    14    1
    11    35    34    1
    12    33    32    1
    13    34    32   ar
    14    34    38   ar
    15    32    30   ar
    16    31    30    1
    17    30    27   ar
    18    38    39    1
    19    38    28   ar
    20    27    28   ar
    21    27    24    1
    22    28    29    1
    23    24    57    1
    24    58    57    1
    25    19    17    1
    26    57    17    1
    27    57    43    1
    28    66    65    1
    29    17    18    1
    30    17     1    1
    31    65     2   ar
    32    65    67   ar
    33     3     2    1
    34    68    67    1
    35     2     7   ar
    36    44    43    1
    37    67    63   ar
    38    43    25    1
    39    43    20    1
    40    25    45    1
    41     1    20    1
    42     1    11    1
    43    50    49    1
    44     7    11    1
    45     7    61   ar
    46    63    64    1
    47    63    61   ar
    48    20    22    1
    49    20    21    1
    50    45    49   ar
    51    45    46   ar
    52    49    59   ar
    53    12    11    1
    54    11    13    1
    55    61    62    1
    56    47    46    1
    57    46    53   ar
    58    59    60    1
    59    59    48   ar
    60    53    48   ar
    61    53    54    1
    62    48    37    1
    63     4    37    1
    64    37    55    1
    65    55    56    1
    66    55    51    2
    67    10     9    1
    68     9    51    1
    69    51    52    1
    70    23    52    1
    71    52    15    1
    72    52     8    1
