@<TRIPOS>MOLECULE
2(C3 H2 S2), 2(C3 Cl2 O), 2(C14 H8 N2)
 74 78 0 0 0
SMALL
GASTEIGER

@<TRIPOS>ATOM
      1 S           4.1720    4.3496    2.1139 S.3     1  LIG1       -0.0880
      2 S           4.8489    5.7699   -0.3748 S.3     1  LIG1       -0.0880
      3 C           4.1615    4.3410    0.3650 C.2     1  LIG1        0.0695
      4 C           5.2016    6.5672    1.1323 C.2     1  LIG1       -0.0167
      5 H           5.5929    7.4215    1.1527 H       1  LIG1        0.0699
      6 C           4.8955    5.9227    2.2456 C.2     1  LIG1       -0.0167
      7 H           5.0656    6.3057    3.0860 H       1  LIG1        0.0699
      8 CL          1.2627    6.4540    1.2484 Cl      2  LIG2       -0.0779
      9 CL          0.3419    4.0613    3.1120 Cl      2  LIG2       -0.0803
     10 O           1.0082    5.7971   -1.5696 O.2     2  LIG2       -0.2822
     11 C           0.5825    4.9132   -0.8548 C.2     2  LIG2        0.2464
     12 C           0.6516    4.9945    0.6221 C.2     2  LIG2        0.1111
     13 C           0.2518    3.9852    1.4140 C.2     2  LIG2        0.0829
     14 S           2.9467    3.1080   15.5604 S.3     3  LIG3       -0.0880
     15 S           3.7041    1.6611   13.1331 S.3     3  LIG3       -0.0880
     16 C           3.6141    1.6657   14.8633 C.2     3  LIG3        0.0695
     17 C           2.6628    3.8931   14.0510 C.2     3  LIG3       -0.0167
     18 H           2.2839    4.7526   14.0092 H       3  LIG3        0.0699
     19 C           3.0033    3.2273   12.9513 C.2     3  LIG3       -0.0167
     20 H           2.8654    3.5990   12.1002 H       3  LIG3        0.0699
     21 CL          6.6178    3.7377   13.8204 Cl      4  LIG4       -0.0779
     22 CL          7.5952    1.2361   12.1280 Cl      4  LIG4       -0.0803
     23 O           6.6919    3.2091   16.6833 O.2     4  LIG4       -0.2822
     24 C           7.1357    2.2770   16.0224 C.2     4  LIG4        0.2464
     25 C           7.1595    2.2934   14.5563 C.2     4  LIG4        0.1111
     26 C           7.5826    1.2301   13.8345 C.2     4  LIG4        0.0829
     27 N           5.1294    5.7459    5.4235 N.ar    5  LIG5       -0.2354
     28 N           6.6533    6.6926    7.0177 N.ar    5  LIG5       -0.2354
     29 C           6.2818    6.2764    5.8089 C.ar    5  LIG5        0.1173
     30 H           6.9276    6.3726    5.1322 H       5  LIG5        0.1047
     31 C           6.0227    6.9652    9.3283 C.ar    5  LIG5       -0.0350
     32 H           6.8610    7.3386    9.5295 H       5  LIG5        0.0639
     33 C           5.1001    6.8285   10.3026 C.ar    5  LIG5       -0.0520
     34 H           5.3109    7.1105   11.1732 H       5  LIG5        0.0624
     35 C           2.8217    6.1477   11.0235 C.ar    5  LIG5       -0.0540
     36 H           2.9909    6.4535   11.8959 H       5  LIG5        0.0624
     37 C           1.5903    5.5818   10.7139 C.ar    5  LIG5       -0.0606
     38 H           0.9359    5.5019   11.3836 H       5  LIG5        0.0618
     39 C           1.3134    5.1345    9.4350 C.ar    5  LIG5       -0.0540
     40 H           0.4820    4.7373    9.2520 H       5  LIG5        0.0624
     41 C           2.0062    4.8739    7.0628 C.ar    5  LIG5       -0.0520
     42 H           1.1724    4.4979    6.8460 H       5  LIG5        0.0624
     43 C           2.9255    5.0240    6.0837 C.ar    5  LIG5       -0.0350
     44 H           2.7257    4.7560    5.2054 H       5  LIG5        0.0639
     45 C           5.7384    6.5466    7.9877 C.ar    5  LIG5        0.0754
     46 C           3.8021    6.2624   10.0458 C.ar    5  LIG5       -0.0166
     47 C           2.2544    5.2679    8.4180 C.ar    5  LIG5       -0.0166
     48 C           4.2047    5.5905    6.3877 C.ar    5  LIG5        0.0754
     49 C           4.4727    5.9855    7.7124 C.ar    5  LIG5        0.0340
     50 C           3.5106    5.8330    8.7312 C.ar    5  LIG5        0.0005
     51 N           4.1165    2.5440   10.0269 N.ar    6  LIG6       -0.2354
     52 N           6.1109    3.0428    8.7867 N.ar    6  LIG6       -0.2354
     53 C           5.3607    2.9923    9.8799 C.ar    6  LIG6        0.1173
     54 H           5.7661    3.3196   10.6609 H       6  LIG6        0.1047
     55 C           6.2224    2.6045    6.4130 C.ar    6  LIG6       -0.0350
     56 H           7.1086    2.9183    6.3825 H       6  LIG6        0.0639
     57 C           5.6334    2.1763    5.2868 C.ar    6  LIG6       -0.0520
     58 H           6.1177    2.1979    4.4827 H       6  LIG6        0.0624
     59 C           3.6376    1.2624    4.1152 C.ar    6  LIG6       -0.0540
     60 H           4.0901    1.2840    3.2904 H       6  LIG6        0.0624
     61 C           2.3434    0.8140    4.1683 C.ar    6  LIG6       -0.0606
     62 H           1.9162    0.5418    3.3757 H       6  LIG6        0.0618
     63 C           1.6604    0.7565    5.3606 C.ar    6  LIG6       -0.0540
     64 H           0.7762    0.4359    5.3731 H       6  LIG6        0.0624
     65 C           1.5884    1.1473    7.8157 C.ar    6  LIG6       -0.0520
     66 H           0.7099    0.8147    7.8615 H       6  LIG6        0.0624
     67 C           2.1825    1.5945    8.9410 C.ar    6  LIG6       -0.0350
     68 H           1.7106    1.5798    9.7552 H       6  LIG6        0.0639
     69 C           5.5227    2.5914    7.6618 C.ar    6  LIG6        0.0754
     70 C           4.2909    1.6884    5.2756 C.ar    6  LIG6       -0.0166
     71 C           2.2602    1.1661    6.5533 C.ar    6  LIG6       -0.0166
     72 C           3.5199    2.0895    8.9084 C.ar    6  LIG6        0.0754
     73 C           4.2071    2.0997    7.6813 C.ar    6  LIG6        0.0340
     74 C           3.5875    1.6433    6.4996 C.ar    6  LIG6        0.0005
@<TRIPOS>BOND
     1    10    11    2
     2    11    12    1
     3     2     3    2
     4     2     4    1
     5     3     1    1
     6    12     8    1
     7    12    13    2
     8     4     5    1
     9     4     6    2
    10    13     9    1
    11     1     6    1
    12     6     7    1
    13    60    59    1
    14    62    61    1
    15    59    61   ar
    16    59    70   ar
    17    61    63   ar
    18    58    57    1
    19    30    29    1
    20    44    43    1
    21    70    57   ar
    22    70    74   ar
    23    57    55   ar
    24    63    64    1
    25    63    71   ar
    26    27    29   ar
    27    27    48   ar
    28    29    28   ar
    29    43    48   ar
    30    43    41   ar
    31    56    55    1
    32    48    49   ar
    33    55    69   ar
    34    74    71   ar
    35    74    73   ar
    36    71    65   ar
    37    42    41    1
    38    28    45   ar
    39    41    47   ar
    40    69    73   ar
    41    69    52   ar
    42    73    72   ar
    43    49    45   ar
    44    49    50   ar
    45    65    66    1
    46    65    67   ar
    47    45    31   ar
    48    47    50   ar
    49    47    39   ar
    50    50    46   ar
    51    52    53   ar
    52    72    67   ar
    53    72    51   ar
    54    67    68    1
    55    40    39    1
    56    31    32    1
    57    31    33   ar
    58    39    37   ar
    59    53    51   ar
    60    53    54    1
    61    46    33   ar
    62    46    35   ar
    63    33    34    1
    64    37    35   ar
    65    37    38    1
    66    35    36    1
    67    20    19    1
    68    22    26    1
    69    19    15    1
    70    19    17    2
    71    15    16    2
    72    21    25    1
    73    26    25    2
    74    18    17    1
    75    17    14    1
    76    25    24    1
    77    16    14    1
    78    24    23    2
