@<TRIPOS>MOLECULE
C6 H4 S4, 3(C6 Cl4 O2), 2(C12 H10)
 47 48 0 0 0
SMALL
GASTEIGER

@<TRIPOS>ATOM
      1 S           5.1441    6.0569    8.5763 S.3     1  LIG1       -0.0880
      2 S           4.5462    4.4308   10.9519 S.3     1  LIG1       -0.0880
      3 C           5.1184    5.9540   10.3181 C.2     1  LIG1        0.0695
      4 C           4.5178    4.4587    8.3285 C.2     1  LIG1       -0.0167
      5 H           4.3699    4.1294    7.4720 H       1  LIG1        0.0699
      6 C           4.2567    3.7236    9.3968 C.2     1  LIG1       -0.0167
      7 H           3.9285    2.8570    9.3154 H       1  LIG1        0.0699
      8 CL          0.6940    3.8205    9.3426 Cl      2  LIG2       -0.0779
      9 CL          1.4903    6.3674    7.5921 Cl      2  LIG2       -0.0803
     10 O           0.8689    4.3905   12.1803 O.2     2  LIG2       -0.2822
     11 C           1.2494    5.3211   11.5148 C.2     2  LIG2        0.2464
     12 C           1.2093    5.2884   10.0309 C.2     2  LIG2        0.1111
     13 C           1.5516    6.3539    9.2907 C.2     2  LIG2        0.0829
     14 CL          1.1042   -0.4382    1.7998 Cl      3  LIG3       -0.0779
     15 CL          1.6067    2.2237    0.1631 Cl      3  LIG3       -0.0779
     16 CL          3.0557    4.7436    4.7018 Cl      3  LIG3       -0.0779
     17 CL          2.5103    2.0785    6.3439 Cl      3  LIG3       -0.0779
     18 O           1.5452   -0.0411    4.6373 O.2     3  LIG3       -0.2847
     19 O           2.4795    4.3909    1.8785 O.2     3  LIG3       -0.2847
     20 C           1.7791    0.9577    4.0052 C.2     3  LIG3        0.2184
     21 C           1.5815    1.0140    2.5335 C.2     3  LIG3        0.1110
     22 C           1.8013    2.1357    1.8479 C.2     3  LIG3        0.1110
     23 C           2.2818    3.3818    2.5020 C.2     3  LIG3        0.2184
     24 C           2.5125    3.3119    3.9705 C.2     3  LIG3        0.1110
     25 C           2.2813    2.1919    4.6611 C.2     3  LIG3        0.1110
     26 C           5.3274    0.6300    4.1478 C.ar    4  LIG4       -0.0391
     27 C           4.8867    0.0907    2.9826 C.ar    4  LIG4       -0.0580
     28 H           4.5754   -0.7855    2.9558 H       4  LIG4        0.0620
     29 C           4.9083    0.8817    1.8138 C.ar    4  LIG4       -0.0609
     30 H           4.6012    0.5096    1.0181 H       4  LIG4        0.0618
     31 C           5.3603    2.1690    1.8016 C.ar    4  LIG4       -0.0540
     32 H           5.3588    2.6550    1.0096 H       4  LIG4        0.0624
     33 C           6.3587    4.0731    3.1766 C.ar    4  LIG4       -0.0540
     34 H           6.4162    4.6511    2.4499 H       4  LIG4        0.0624
     35 C           6.7800    4.4852    4.4054 C.ar    4  LIG4       -0.0609
     36 H           7.1171    5.3468    4.4969 H       4  LIG4        0.0618
     37 C           6.7233    3.6523    5.5500 C.ar    4  LIG4       -0.0580
     38 H           7.0163    3.9627    6.3767 H       4  LIG4        0.0620
     39 C           6.2307    2.3845    5.4173 C.ar    4  LIG4       -0.0391
     40 C           5.7990    1.9557    4.1505 C.ar    4  LIG4       -0.0115
     41 C           5.8326    2.7646    2.9987 C.ar    4  LIG4       -0.0174
     42 C           5.4428    0.0856    5.5536 C.3     4  LIG4       -0.0231
     43 H           6.0091   -0.7016    5.5708 H       4  LIG4        0.0316
     44 H           4.5687   -0.1504    5.9030 H       4  LIG4        0.0316
     45 C           6.0714    1.2294    6.3836 C.3     4  LIG4       -0.0231
     46 H           5.4912    1.4763    7.1205 H       4  LIG4        0.0316
     47 H           6.9320    0.9600    6.7411 H       4  LIG4        0.0316
@<TRIPOS>BOND
     1    15    22    1
     2    32    31    1
     3    30    29    1
     4    14    21    1
     5    31    29   ar
     6    31    41   ar
     7    29    27   ar
     8    22    23    1
     9    22    21    2
    10    19    23    2
    11    34    33    1
    12    23    24    1
    13    21    20    1
    14    28    27    1
    15    27    26   ar
    16    41    33   ar
    17    41    40   ar
    18    33    35   ar
    19    24    25    2
    20    24    16    1
    21    20    18    2
    22    20    25    1
    23    26    40   ar
    24    26    42    1
    25    40    39   ar
    26    35    36    1
    27    35    37   ar
    28    25    17    1
    29    39    37   ar
    30    39    45    1
    31    37    38    1
    32    42    43    1
    33    42    44    1
    34    42    45    1
    35    45    47    1
    36    45    46    1
    37     5     4    1
    38     9    13    1
    39     4     1    1
    40     4     6    2
    41     1     3    1
    42    13    12    2
    43     7     6    1
    44     8    12    1
    45     6     2    1
    46    12    11    1
    47     3     2    2
    48    11    10    2
