@<TRIPOS>MOLECULE
8000160.cif
 87 91 0 0 0
SMALL
GASTEIGER

@<TRIPOS>ATOM
      1 O           4.3752    3.3672    6.9203 O.3     1  LIG1       -0.3616
      2 O           2.1641    3.8549    6.9684 O.2     1  LIG1       -0.2445
      3 O           2.4957    5.4305    9.1283 O.3     1  LIG1       -0.4455
      4 O           2.0278    6.3204   11.1271 O.2     1  LIG1       -0.2502
      5 O           2.2707   -1.1413    1.1137 O.3     1  LIG1       -0.4951
      6 N           4.1605    2.6800    5.6415 N.4     1  LIG1       -0.1152
      7 C           4.0486    1.2294    5.9573 C.3     1  LIG1        0.1327
      8 C           3.6212    0.5339    4.6733 C.ar    1  LIG1       -0.0151
      9 C           2.3936    0.8792    4.1041 C.ar    1  LIG1       -0.0526
     10 C           1.9653    0.3082    2.9267 C.ar    1  LIG1       -0.0196
     11 C           2.7729   -0.6344    2.2873 C.ar    1  LIG1        0.1201
     12 C           3.9866   -1.0000    2.8370 C.ar    1  LIG1       -0.0196
     13 C           4.4073   -0.4054    4.0300 C.ar    1  LIG1       -0.0526
     14 C           3.0317   -2.1386    0.4471 C.3     1  LIG1        0.0788
     15 C           5.2616    0.6512    6.5616 C.1     1  LIG1       -0.0699
     16 C           6.2389    0.1554    7.0425 C.1     1  LIG1       -0.0643
     17 C           7.3975   -0.4751    7.6104 C.ar    1  LIG1        0.0250
     18 C           7.9908   -1.5510    6.9632 C.ar    1  LIG1       -0.0463
     19 C           9.1128   -2.1608    7.5103 C.ar    1  LIG1       -0.0606
     20 C           9.6526   -1.6949    8.6838 C.ar    1  LIG1       -0.0617
     21 C           9.0787   -0.6167    9.3271 C.ar    1  LIG1       -0.0606
     22 C           7.9545   -0.0063    8.7917 C.ar    1  LIG1       -0.0463
     23 C           5.3764    3.0267    4.8917 C.3     1  LIG1        0.0620
     24 C           5.2891    4.4527    4.3887 C.ar    1  LIG1       -0.0301
     25 C           4.1273    4.8922    3.7506 C.ar    1  LIG1       -0.0572
     26 C           4.0644    6.1730    3.2178 C.ar    1  LIG1       -0.0615
     27 C           5.1534    7.0343    3.3516 C.ar    1  LIG1       -0.0617
     28 C           6.2879    6.6082    3.9988 C.ar    1  LIG1       -0.0615
     29 C           6.3592    5.3101    4.5161 C.ar    1  LIG1       -0.0572
     30 C           3.2696    3.9728    7.3921 C.2     1  LIG1        0.3707
     31 C           3.7026    4.8294    8.5617 C.3     1  LIG1        0.2166
     32 C           4.6431    6.0069    8.2589 C.3     1  LIG1       -0.0005
     33 C           5.0166    6.4709    9.6819 C.3     1  LIG1       -0.0327
     34 C           4.2783    5.4617   10.6111 C.3     1  LIG1        0.0744
     35 C           4.3482    4.1373    9.7950 C.3     1  LIG1        0.0311
     36 C           5.7660    3.6175    9.5936 C.3     1  LIG1       -0.0546
     37 C           3.4788    3.0256   10.3668 C.3     1  LIG1       -0.0546
     38 C           4.7033    5.4603   12.0667 C.3     1  LIG1       -0.0488
     39 C           2.8214    5.8032   10.4006 C.2     1  LIG1        0.3148
     40 C          -0.1302    0.5215   12.5514 C.ar    2  LIG2       -0.0504
     41 C           0.9707    1.3631   12.6203 C.ar    2  LIG2       -0.0588
     42 C           0.9578    2.4821   13.3845 C.ar    2  LIG2       -0.0615
     43 C          -0.0939    2.8036   14.1356 C.ar    2  LIG2       -0.0617
     44 C          -1.1975    2.0202   14.1148 C.ar    2  LIG2       -0.0615
     45 C          -1.2412    0.8632   13.3273 C.ar    2  LIG2       -0.0588
     46 C          -0.1744   -0.7372   11.7522 C.3     2  LIG2       -0.0397
     47 H           3.3054    1.1136    6.5239 H       1  LIG1        0.0683
     48 H           1.8493    1.5527    4.5901 H       1  LIG1        0.0622
     49 H           1.1251    0.5391    2.6057 H       1  LIG1        0.0654
     50 H           4.5653   -1.5055    2.4757 H       1  LIG1        0.0654
     51 H           5.2456   -0.6741    4.4927 H       1  LIG1        0.0622
     52 H           2.6019   -2.2699   -0.3548 H       1  LIG1        0.0660
     53 H           3.0557   -2.9460    0.9578 H       1  LIG1        0.0660
     54 H           3.9270   -1.8274    0.2872 H       1  LIG1        0.0660
     55 H           7.6302   -1.9751    6.1380 H       1  LIG1        0.0630
     56 H           9.5175   -2.8348    7.0373 H       1  LIG1        0.0618
     57 H          10.4650   -2.1796    9.0659 H       1  LIG1        0.0618
     58 H           9.3767   -0.1393   10.3044 H       1  LIG1        0.0618
     59 H           7.5937    0.7240    9.1946 H       1  LIG1        0.0630
     60 H           5.4102    2.4753    4.1223 H       1  LIG1        0.0510
     61 H           6.1192    2.8723    5.4505 H       1  LIG1        0.0510
     62 H           3.3821    4.2263    3.6843 H       1  LIG1        0.0621
     63 H           3.2410    6.4463    2.7174 H       1  LIG1        0.0618
     64 H           5.2145    8.1238    3.2373 H       1  LIG1        0.0618
     65 H           7.0461    7.2314    4.1678 H       1  LIG1        0.0618
     66 H           7.2799    5.0094    4.9306 H       1  LIG1        0.0621
     67 H           5.3675    5.7327    7.7351 H       1  LIG1        0.0310
     68 H           4.2315    6.6198    7.7416 H       1  LIG1        0.0310
     69 H           6.0118    6.3711    9.8184 H       1  LIG1        0.0277
     70 H           4.7624    7.3234    9.9419 H       1  LIG1        0.0277
     71 H           6.4922    4.1753    9.1413 H       1  LIG1        0.0237
     72 H           5.8410    2.9247    9.0867 H       1  LIG1        0.0237
     73 H           6.0741    3.5297   10.4552 H       1  LIG1        0.0237
     74 H           3.5469    2.3205   10.0224 H       1  LIG1        0.0237
     75 H           3.9051    2.5832   11.0842 H       1  LIG1        0.0237
     76 H           2.5470    3.2176   10.4695 H       1  LIG1        0.0237
     77 H           5.7356    5.2336   12.0784 H       1  LIG1        0.0240
     78 H           4.1663    4.7168   12.6437 H       1  LIG1        0.0240
     79 H           4.5087    6.2389   12.4721 H       1  LIG1        0.0240
     80 H           1.7608    1.1553   12.1226 H       2  LIG2        0.0620
     81 H           1.7403    3.0729   13.4027 H       2  LIG2        0.0618
     82 H          -0.0800    3.5919   14.7074 H       2  LIG2        0.0618
     83 H          -1.9635    2.2761   14.6503 H       2  LIG2        0.0618
     84 H          -2.0195    0.3217   13.3403 H       2  LIG2        0.0620
     85 H          -0.2834   -1.4718   12.3422 H       2  LIG2        0.0278
     86 H          -0.8867   -0.6905   11.1453 H       2  LIG2        0.0278
     87 H           0.6523   -0.8294   11.2856 H       2  LIG2        0.0278
@<TRIPOS>BOND
     1    52    14    1
     2    54    14    1
     3    14    53    1
     4    14     5    1
     5     5    11    1
     6    11    12   ar
     7    11    10   ar
     8    50    12    1
     9    49    10    1
    10    63    26    1
    11    12    13   ar
    12    10     9   ar
    13    26    27   ar
    14    26    25   ar
    15    64    27    1
    16    27    28   ar
    17    62    25    1
    18    25    24   ar
    19    28    65    1
    20    28    29   ar
    21    13    51    1
    22    13     8   ar
    23     9    48    1
    24     9     8   ar
    25    60    23    1
    26    24    29   ar
    27    24    23    1
    28    29    66    1
    29     8     7    1
    30    23    61    1
    31    23     6    1
    32     6     7    1
    33     6     1    1
    34     7    47    1
    35     7    15    1
    36    55    18    1
    37    15    16    3
    38     1    30    1
    39    18    19   ar
    40    18    17   ar
    41     2    30    2
    42    56    19    1
    43    16    17    1
    44    30    31    1
    45    19    20   ar
    46    17    22   ar
    47    67    32    1
    48    68    32    1
    49    32    31    1
    50    32    33    1
    51    31     3    1
    52    31    35    1
    53    20    57    1
    54    20    21   ar
    55    22    59    1
    56    22    21   ar
    57    72    36    1
    58     3    39    1
    59    71    36    1
    60    21    58    1
    61    36    35    1
    62    36    73    1
    63    33    69    1
    64    33    70    1
    65    33    34    1
    66    35    37    1
    67    35    34    1
    68    74    37    1
    69    37    76    1
    70    37    75    1
    71    39    34    1
    72    39     4    2
    73    34    38    1
    74    86    46    1
    75    87    46    1
    76    46    85    1
    77    46    40    1
    78    38    77    1
    79    38    79    1
    80    38    78    1
    81    80    41    1
    82    40    41   ar
    83    40    45   ar
    84    41    42   ar
    85    45    84    1
    86    45    44   ar
    87    42    81    1
    88    42    43   ar
    89    44    43   ar
    90    44    83    1
    91    43    82    1
