@<TRIPOS>MOLECULE
2-((4-methyl-phenylamino)methyl)phenol, C~14~H~15~NO
 31 32 0 0 0
SMALL
GASTEIGER

@<TRIPOS>ATOM
      1 C           6.7397    6.3222   13.9142 C.ar    1  LIG1        0.1215
      2 C           6.9258    6.2936   15.2885 C.ar    1  LIG1       -0.0199
      3 H           7.6496    6.7367   15.6693 H       1  LIG1        0.0654
      4 C           6.0379    5.6079   16.0913 C.ar    1  LIG1       -0.0583
      5 H           6.1580    5.6010   17.0130 H       1  LIG1        0.0619
      6 C           4.9762    4.9352   15.5359 C.ar    1  LIG1       -0.0612
      7 H           4.3818    4.4663   16.0765 H       1  LIG1        0.0618
      8 C           4.8012    4.9623   14.1679 C.ar    1  LIG1       -0.0536
      9 H           4.0776    4.5099   13.7977 H       1  LIG1        0.0622
     10 C           5.6685    5.6429   13.3258 C.ar    1  LIG1        0.0110
     11 C           5.4577    5.6294   11.8331 C.3     1  LIG1        0.0378
     12 H           6.2902    5.8578   11.3903 H       1  LIG1        0.0512
     13 H           5.2056    4.7360   11.5532 H       1  LIG1        0.0512
     14 C           3.9536    6.4849   10.0737 C.ar    1  LIG1        0.0274
     15 C           2.7538    7.1056    9.7309 C.ar    1  LIG1       -0.0406
     16 H           2.2822    7.5820   10.3750 H       1  LIG1        0.0636
     17 C           2.2565    7.0207    8.4408 C.ar    1  LIG1       -0.0571
     18 H           1.4499    7.4368    8.2374 H       1  LIG1        0.0621
     19 C           2.9321    6.3303    7.4438 C.ar    1  LIG1       -0.0503
     20 C           2.3552    6.2136    6.0514 C.3     1  LIG1       -0.0397
     21 H           3.0482    6.3628    5.4038 H       1  LIG1        0.0278
     22 H           1.6627    6.8688    5.9356 H       1  LIG1        0.0278
     23 H           1.9879    5.3352    5.9293 H       1  LIG1        0.0278
     24 C           4.1331    5.7522    7.7882 C.ar    1  LIG1       -0.0571
     25 H           4.6182    5.3026    7.1342 H       1  LIG1        0.0621
     26 C           4.6472    5.8175    9.0798 C.ar    1  LIG1       -0.0406
     27 H           5.4601    5.4107    9.2756 H       1  LIG1        0.0636
     28 N           4.4142    6.5791   11.4213 N.pl3   1  LIG1       -0.3396
     29 O           7.6164    6.9851   13.0900 O.3     1  LIG1       -0.5064
     30 H           7.8733    7.6708   13.4592 H       1  LIG1        0.2921
     31 H           3.7216    6.5283   11.9578 H       1  LIG1        0.1464
@<TRIPOS>BOND
     1    21    20    1
     2    23    20    1
     3    22    20    1
     4    20    19    1
     5    25    24    1
     6    19    24   ar
     7    19    17   ar
     8    24    26   ar
     9    18    17    1
    10    17    15   ar
    11    26    27    1
    12    26    14   ar
    13    15    14   ar
    14    15    16    1
    15    14    28    1
    16    12    11    1
    17    28    11    1
    18    28    31    1
    19    13    11    1
    20    11    10    1
    21    29    30    1
    22    29     1    1
    23    10     1   ar
    24    10     8   ar
    25     9     8    1
    26     1     2   ar
    27     8     6   ar
    28     2     3    1
    29     2     4   ar
    30     6     7    1
    31     6     4   ar
    32     4     5    1
