@<TRIPOS>MOLECULE
2-oxo-3- triphenylphos phonium-N-(phenyl)-maleinimidylid
 53 57 0 0 0
SMALL
GASTEIGER

@<TRIPOS>ATOM
      1 P           0.3469    7.0922    8.8179 P.3     1  LIG1        0.1411
      2 O          -0.2783   10.1845    9.1469 O.2     1  LIG1       -0.2694
      3 C          -0.5222    7.0552    7.2315 C.ar    1  LIG1        0.1078
      4 C          -0.6497    9.3963    9.9901 C.2     1  LIG1        0.2848
      5 O          -1.3352    6.3574   11.6610 O.2     1  LIG1       -0.2818
      6 N          -1.3684    9.8203   11.1636 N.am    1  LIG1       -0.1998
      7 C           0.5667    5.3792    9.3133 C.ar    1  LIG1        0.1078
      8 O          -2.3476    8.7412   12.9526 O.2     1  LIG1       -0.2658
      9 C           1.9584    7.8644    8.5855 C.ar    1  LIG1        0.1078
     10 C          -1.7327   11.1683   11.4397 C.ar    1  LIG1        0.0444
     11 C          -0.5191    7.9715   10.0411 C.3     1  LIG1        0.2917
     12 C          -1.7195    8.7250   11.9182 C.2     1  LIG1        0.2979
     13 C          -1.1669    7.4753   11.1980 C.2     1  LIG1        0.2766
     14 C           0.8659    2.7189   10.0296 C.ar    1  LIG1       -0.0615
     15 H           0.9726    1.8268   10.2676 H       1  LIG1        0.0618
     16 C          -0.7894   12.1596   11.4171 C.ar    1  LIG1       -0.0398
     17 H           0.1013   11.9557   11.2433 H       1  LIG1        0.0636
     18 C           2.6314    8.3641    9.6846 C.ar    1  LIG1       -0.0187
     19 H           2.2495    8.2983   10.5307 H       1  LIG1        0.0657
     20 C          -1.8508    7.0092    4.7995 C.ar    1  LIG1       -0.0615
     21 H          -2.2890    7.0071    3.9799 H       1  LIG1        0.0618
     22 C          -1.5569    7.9240    6.9802 C.ar    1  LIG1       -0.0187
     23 H          -1.8185    8.5339    7.6311 H       1  LIG1        0.0657
     24 C          -3.0537   11.4671   11.7331 C.ar    1  LIG1       -0.0398
     25 H          -3.6929   10.7911   11.7444 H       1  LIG1        0.0636
     26 C          -0.1605    6.1356    6.2525 C.ar    1  LIG1       -0.0187
     27 H           0.5313    5.5348    6.4086 H       1  LIG1        0.0657
     28 C          -2.2088    7.8924    5.7652 C.ar    1  LIG1       -0.0580
     29 H          -2.9060    8.4872    5.6053 H       1  LIG1        0.0619
     30 C          -0.3706    4.4450    8.9959 C.ar    1  LIG1       -0.0187
     31 H          -1.1339    4.7071    8.5326 H       1  LIG1        0.0657
     32 C           1.6597    4.9694   10.0082 C.ar    1  LIG1       -0.0187
     33 H           2.3198    5.5815   10.2424 H       1  LIG1        0.0657
     34 C          -0.8367    6.1212    5.0475 C.ar    1  LIG1       -0.0580
     35 H          -0.6006    5.5017    4.3966 H       1  LIG1        0.0619
     36 C           2.5303    7.9847    7.3365 C.ar    1  LIG1       -0.0187
     37 H           2.0862    7.6556    6.5886 H       1  LIG1        0.0657
     38 C           3.8631    8.9566    9.5348 C.ar    1  LIG1       -0.0580
     39 H           4.3213    9.2740   10.2802 H       1  LIG1        0.0619
     40 C          -3.4184   12.7698   12.0101 C.ar    1  LIG1       -0.0600
     41 H          -4.2982   12.9703   12.2342 H       1  LIG1        0.0618
     42 C           3.7655    8.5963    7.1930 C.ar    1  LIG1       -0.0580
     43 H           4.1503    8.6761    6.3494 H       1  LIG1        0.0619
     44 C           1.7882    3.6379   10.3658 C.ar    1  LIG1       -0.0580
     45 H           2.5347    3.3711   10.8530 H       1  LIG1        0.0619
     46 C           4.4177    9.0831    8.2896 C.ar    1  LIG1       -0.0615
     47 H           5.2417    9.5019    8.1889 H       1  LIG1        0.0618
     48 C          -0.2155    3.1238    9.3422 C.ar    1  LIG1       -0.0580
     49 H          -0.8651    2.5045    9.0992 H       1  LIG1        0.0619
     50 C          -1.1728   13.4691   11.6525 C.ar    1  LIG1       -0.0600
     51 H          -0.5435   14.1525   11.6097 H       1  LIG1        0.0618
     52 C          -2.4836   13.7630   11.9522 C.ar    1  LIG1       -0.0616
     53 H          -2.7341   14.6452   12.1171 H       1  LIG1        0.0618
@<TRIPOS>BOND
     1    21    20    1
     2    35    34    1
     3    20    34   ar
     4    20    28   ar
     5    34    26   ar
     6    29    28    1
     7    28    22   ar
     8    26    27    1
     9    26     3   ar
    10    43    42    1
    11    37    36    1
    12    22     3   ar
    13    22    23    1
    14    42    36   ar
    15    42    46   ar
    16     3     1    1
    17    36     9   ar
    18    47    46    1
    19    46    38   ar
    20    31    30    1
    21     9     1    1
    22     9    18   ar
    23     1     7    1
    24     1    11    1
    25    30     7   ar
    26    30    48   ar
    27    49    48    1
    28     2     4    2
    29     7    32   ar
    30    48    14   ar
    31    38    18   ar
    32    38    39    1
    33    18    19    1
    34     4    11    1
    35     4     6   am
    36    32    33    1
    37    32    44   ar
    38    14    15    1
    39    14    44   ar
    40    11    13    1
    41    44    45    1
    42     6    10    1
    43     6    12   am
    44    13     5    2
    45    13    12    1
    46    17    16    1
    47    16    10   ar
    48    16    50   ar
    49    10    24   ar
    50    51    50    1
    51    50    52   ar
    52    24    25    1
    53    24    40   ar
    54    12     8    2
    55    52    40   ar
    56    52    53    1
    57    40    41    1
