@<TRIPOS>MOLECULE
1,2-bis(4-pyridyl)-glycol
 14 14 0 0 0
SMALL
GASTEIGER

@<TRIPOS>ATOM
      1 N           1.2203    3.7438    8.3110 N.ar    1  LIG1       -0.2632
      2 O           1.4877    0.2332    4.7706 O.3     1  LIG1       -0.3843
      3 H           1.5725    0.6813    4.0888 H       1  LIG1        0.2104
      4 C           1.5604    2.4696    8.5284 C.ar    1  LIG1        0.0279
      5 H           2.0158    2.2670    9.3138 H       1  LIG1        0.0829
      6 C           1.2783    1.4430    7.6613 C.ar    1  LIG1       -0.0379
      7 H           1.5540    0.5761    7.8577 H       1  LIG1        0.0636
      8 C           0.5747    1.7060    6.4843 C.ar    1  LIG1       -0.0135
      9 C           0.2088    3.0216    6.2709 C.ar    1  LIG1       -0.0379
     10 H          -0.2660    3.2505    5.5045 H       1  LIG1        0.0636
     11 C           0.5432    3.9953    7.1869 C.ar    1  LIG1        0.0279
     12 H           0.2853    4.8713    7.0136 H       1  LIG1        0.0829
     13 C           0.2894    0.6274    5.4605 C.3     1  LIG1        0.1102
     14 H          -0.3506    0.9767    4.8059 H       1  LIG1        0.0673
@<TRIPOS>BOND
     1     3     2    1
     2     2    13    1
     3    14    13    1
     4    13     8    1
     5    10     9    1
     6     9     8   ar
     7     9    11   ar
     8     8     6   ar
     9    12    11    1
    10    11     1   ar
    11     6     7    1
    12     6     4   ar
    13     1     4   ar
    14     4     5    1
