@<TRIPOS>MOLECULE
(<i>S</i>)-6,6'-Dibromo-2,2'-diethoxy-1,1'-binaphthyl
 48 51 0 0 0
SMALL
GASTEIGER

@<TRIPOS>ATOM
      1 BR          6.2904    3.3279   14.8326 Br      1  LIG1       -0.0503
      2 BR          9.3361   11.2247    6.7777 Br      1  LIG1       -0.0503
      3 C           5.9690    4.1768   13.0988 C.ar    1  LIG1        0.0185
      4 C           6.0089    3.5153   11.8592 C.ar    1  LIG1       -0.0400
      5 H           6.1688    2.5995   11.8627 H       1  LIG1        0.0635
      6 C           5.8269    4.1335   10.6283 C.ar    1  LIG1       -0.0160
      7 C           5.9016    3.4737    9.2846 C.ar    1  LIG1       -0.0505
      8 H           6.0593    2.5562    9.2725 H       1  LIG1        0.0625
      9 C           5.7632    4.0804    8.0954 C.ar    1  LIG1       -0.0187
     10 H           5.8424    3.6000    7.3037 H       1  LIG1        0.0654
     11 C           5.4975    5.4432    8.0763 C.ar    1  LIG1        0.1289
     12 C           5.4168    6.1180    9.2672 C.ar    1  LIG1        0.0356
     13 C           5.5826    5.4865   10.5849 C.ar    1  LIG1       -0.0065
     14 C           5.5559    6.1247   11.8662 C.ar    1  LIG1       -0.0523
     15 H           5.3961    7.0405   11.8714 H       1  LIG1        0.0624
     16 C           5.7440    5.5147   13.1248 C.ar    1  LIG1       -0.0471
     17 H           5.7166    5.9967   13.9200 H       1  LIG1        0.0629
     18 C           5.1829    7.5275    9.2082 C.ar    1  LIG1        0.0356
     19 C           6.1622    8.3768    8.6388 C.ar    1  LIG1       -0.0065
     20 C           7.3968    7.9380    8.1197 C.ar    1  LIG1       -0.0523
     21 H           7.5900    7.0289    8.1648 H       1  LIG1        0.0624
     22 C           8.3221    8.7557    7.5555 C.ar    1  LIG1       -0.0471
     23 H           9.1215    8.4266    7.2117 H       1  LIG1        0.0629
     24 C           8.0171   10.0970    7.5207 C.ar    1  LIG1        0.0185
     25 C           6.8935   10.5574    8.0624 C.ar    1  LIG1       -0.0400
     26 H           6.7543   11.4782    8.0693 H       1  LIG1        0.0635
     27 C           5.9068    9.7363    8.6197 C.ar    1  LIG1       -0.0160
     28 C           4.7003   10.2017    9.1318 C.ar    1  LIG1       -0.0505
     29 H           4.5278   11.1159    9.0902 H       1  LIG1        0.0625
     30 C           3.7787    9.4106    9.6770 C.ar    1  LIG1       -0.0187
     31 H           2.9926    9.7729   10.0172 H       1  LIG1        0.0654
     32 C           3.9956    8.0527    9.7360 C.ar    1  LIG1        0.1289
     33 C           1.9253    7.6122   11.0867 C.3     1  LIG1        0.0868
     34 H           1.5611    8.4350   10.7238 H       1  LIG1        0.0694
     35 H           1.2428    6.9291   10.9895 H       1  LIG1        0.0694
     36 C           2.1540    7.8084   12.4808 C.3     1  LIG1       -0.0307
     37 H           2.8091    7.1751   12.7898 H       1  LIG1        0.0262
     38 H           1.3368    7.6854   12.9634 H       1  LIG1        0.0262
     39 H           2.4834    8.7009   12.6283 H       1  LIG1        0.0262
     40 C           5.7632    5.5396    5.5798 C.3     1  LIG1        0.0868
     41 H           5.2229    4.7751    5.3281 H       1  LIG1        0.0694
     42 H           6.6825    5.2438    5.6753 H       1  LIG1        0.0694
     43 C           5.6736    6.6216    4.4982 C.3     1  LIG1       -0.0307
     44 H           4.7513    6.7995    4.2986 H       1  LIG1        0.0262
     45 H           6.1207    6.3192    3.7048 H       1  LIG1        0.0262
     46 H           6.0926    7.4261    4.8142 H       1  LIG1        0.0262
     47 O           3.0711    7.2233   10.2620 O.3     1  LIG1       -0.4916
     48 O           5.2843    6.0898    6.8471 O.3     1  LIG1       -0.4916
@<TRIPOS>BOND
     1    45    43    1
     2    44    43    1
     3    43    46    1
     4    43    40    1
     5    41    40    1
     6    40    42    1
     7    40    48    1
     8     2    24    1
     9    48    11    1
    10    23    22    1
    11    10     9    1
    12    24    22   ar
    13    24    25   ar
    14    22    20   ar
    15    25    26    1
    16    25    27   ar
    17    11     9   ar
    18    11    12   ar
    19     9     7   ar
    20    20    21    1
    21    20    19   ar
    22    27    19   ar
    23    27    28   ar
    24    19    18   ar
    25    29    28    1
    26    28    30   ar
    27    18    12    1
    28    18    32   ar
    29    12    13   ar
    30     8     7    1
    31     7     6   ar
    32    30    32   ar
    33    30    31    1
    34    32    47    1
    35    47    33    1
    36    13     6   ar
    37    13    14   ar
    38     6     4   ar
    39    34    33    1
    40    35    33    1
    41    33    36    1
    42     4     5    1
    43     4     3   ar
    44    14    15    1
    45    14    16   ar
    46    36    39    1
    47    36    37    1
    48    36    38    1
    49     3    16   ar
    50     3     1    1
    51    16    17    1
